data/nesta/nesta_case2736sp_mp.m
%%%%%%%%%%%%%%%%%%%%%%%%%%%%%%%%%%%%%%%%%%%%%%%%%%%%%%%%%%%%%%%%%%%%%%%%%%%
%%%%                                                                  %%%%%
%%%%      NICTA Energy System Test Case Archive (NESTA) - v0.1.5      %%%%%
%%%%              Optimal Power Flow - Typical Operation              %%%%%
%%%%                       30 - October - 2014                        %%%%%
%%%%                                                                  %%%%%
%%%%%%%%%%%%%%%%%%%%%%%%%%%%%%%%%%%%%%%%%%%%%%%%%%%%%%%%%%%%%%%%%%%%%%%%%%%
%
%   Power flow data for Polish system - summer 2004 peak.
%
%   This case represents the Polish 400, 220 and 110 kV networks during
%   summer 2004 peak conditions. Multiple centrally dispatchable
%   generators at a bus have not been aggregated. Generators that are
%   not centrally dispatchable in the Polish energy market are given a
%   cost of zero.
%
%   This data was graciously provided by, and is distributed with the
%   permission of, Roman Korab <roman.korab@polsl.pl>.
%
function mpc = nesta_case2736sp_mp
mpc.version = '2';
mpc.baseMVA = 100.0;

%% area data
%	area	refbus
mpc.areas = [
	1	 18;
];

%% bus data
%	bus_i	type	Pd	Qd	Gs	Bs	area	Vm	Va	baseKV	zone	Vmax	Vmin
mpc.bus = [
	1	 1	 0.0	 0.0	 0.0	 0.0	 1	     1.1010	    36.7758	 220.0	 1	     1.1100	     0.9500;
	2	 1	 0.0	 0.0	 0.0	 0.0	 1	     1.1060	    38.5028	 220.0	 1	     1.1100	     0.9500;
	3	 1	 0.0	 0.0	 0.0	 0.0	 1	     1.0849	    13.5491	 220.0	 1	     1.1100	     0.9500;
	4	 1	 0.0	 0.0	 0.0	 0.0	 1	     1.0923	    32.5189	 220.0	 1	     1.1100	     0.9500;
	5	 1	 0.0	 0.0	 0.0	 0.0	 1	     1.0924	    32.5174	 220.0	 1	     1.1100	     0.9500;
	6	 1	 0.0	 0.0	 0.0	 0.0	 1	     1.0653	    22.2345	 220.0	 1	     1.1100	     0.9500;
	7	 1	 0.0	 0.0	 0.0	 0.0	 1	     1.0654	    22.2470	 220.0	 1	     1.1100	     0.9500;
	8	 1	 0.0	 0.0	 0.0	 0.0	 1	     1.0256	    25.4012	 400.0	 1	     1.0500	     0.9500;
	9	 1	 0.0	 0.0	 0.0	 0.0	 1	     1.0257	    25.4072	 400.0	 1	     1.0500	     0.9500;
	10	 1	 0.0	 0.0	 0.0	 0.0	 1	     1.0587	    21.7599	 220.0	 1	     1.1100	     0.9500;
	11	 1	 0.0	 0.0	 0.0	 0.0	 1	     1.0586	    21.7550	 220.0	 1	     1.1100	     0.9500;
	12	 1	 0.0	 0.0	 0.0	 0.0	 1	     1.0585	    21.7615	 220.0	 1	     1.1100	     0.9500;
	13	 1	 0.0	 0.0	 0.0	 0.0	 1	     1.0585	    21.7541	 220.0	 1	     1.1100	     0.9500;
	14	 1	 0.0	 0.0	 0.0	 0.0	 1	     1.0184	    26.7855	 400.0	 1	     1.0500	     0.9500;
	15	 1	 0.0	 0.0	 0.0	 0.0	 1	     1.0315	    22.6957	 400.0	 1	     1.0500	     0.9500;
	16	 1	 0.0	 0.0	 0.0	 0.0	 1	     1.0315	    22.6957	 400.0	 1	     1.0500	     0.9500;
	17	 2	 0.0	 0.0	 0.0	 0.0	 1	     1.0932	    16.4516	 220.0	 1	     1.1100	     0.9500;
	18	 1	 0.0	 0.0	 0.0	 0.0	 1	     1.0933	    16.4510	 220.0	 1	     1.1100	     0.9500;
	19	 1	 0.0	 0.0	 0.0	 0.0	 1	     1.0968	    33.5199	 220.0	 1	     1.1100	     0.9500;
	20	 1	 0.0	 0.0	 0.0	 0.0	 1	     1.0969	    33.5223	 220.0	 1	     1.1100	     0.9500;
	21	 1	 0.0	 0.0	 0.0	 0.0	 1	     1.0778	    20.6311	 220.0	 1	     1.1100	     0.9500;
	22	 1	 0.0	 0.0	 0.0	 0.0	 1	     1.0778	    20.6311	 220.0	 1	     1.1100	     0.9500;
	23	 1	 0.0	 0.0	 0.0	 0.0	 1	     1.0563	    21.7499	 220.0	 1	     1.1100	     0.9500;
	24	 1	 0.0	 0.0	 0.0	 0.0	 1	     1.0981	    35.2821	 220.0	 1	     1.1100	     0.9500;
	25	 1	 0.0	 0.0	 0.0	 0.0	 1	     1.0326	    25.0803	 400.0	 1	     1.0500	     0.9500;
	26	 2	 61.358	 72.054	 0.0	 0.0	 1	     1.1100	    37.1059	 220.0	 1	     1.1100	     0.9500;
	27	 2	 84.861	 122.06	 0.0	 0.0	 1	     1.1100	    38.7943	 220.0	 1	     1.1100	     0.9500;
	28	 3	 49.0	 74.0	 0.0	 0.0	 1	     1.0462	    36.0291	 400.0	 1	     1.0500	     0.9500;
	29	 2	 49.0	 74.0	 0.0	 0.0	 1	     1.0462	    36.0347	 400.0	 1	     1.0500	     0.9500;
	30	 1	 0.0	 0.0	 0.0	 0.0	 1	     1.0662	    21.3489	 220.0	 1	     1.1100	     0.9500;
	31	 1	 0.0	 0.0	 0.0	 0.0	 1	     1.0439	    34.5951	 400.0	 1	     1.0500	     0.9500;
	32	 1	 0.0	 0.0	 0.0	 0.0	 1	     1.0558	    21.4460	 220.0	 1	     1.1100	     0.9500;
	33	 1	 0.0	 0.0	 0.0	 0.0	 1	     1.0993	    30.1035	 220.0	 1	     1.1100	     0.9500;
	34	 1	 0.0	 0.0	 0.0	 0.0	 1	     1.0767	    27.2725	 220.0	 2	     1.1100	     0.9500;
	35	 1	 0.0	 0.0	 0.0	 0.0	 1	     1.0798	    27.6737	 220.0	 2	     1.1100	     0.9500;
	36	 1	 0.0	 0.0	 0.0	 0.0	 1	     1.0876	    28.6488	 220.0	 2	     1.1100	     0.9500;
	37	 1	 0.0	 0.0	 0.0	 0.0	 1	     1.0876	    28.6469	 220.0	 2	     1.1100	     0.9500;
	38	 1	 0.0	 0.0	 0.0	 0.0	 1	     1.0668	    26.0332	 220.0	 2	     1.1100	     0.9500;
	39	 1	 0.0	 0.0	 0.0	 0.0	 1	     1.1100	    28.9836	 220.0	 2	     1.1100	     0.9500;
	40	 1	 0.0	 0.0	 0.0	 0.0	 1	     1.1099	    28.9840	 220.0	 2	     1.1100	     0.9500;
	41	 1	 0.0	 0.0	 0.0	 0.0	 1	     1.0238	    29.1892	 400.0	 2	     1.0500	     0.9500;
	42	 2	 25.0	 0.0	 0.0	 0.0	 1	     1.0911	    27.8276	 220.0	 2	     1.1100	     0.9500;
	43	 2	 26.0	 0.0	 0.0	 0.0	 1	     1.0910	    27.8460	 220.0	 2	     1.1100	     0.9500;
	44	 2	 25.0	 0.0	 0.0	 0.0	 1	     1.0275	    28.2521	 400.0	 2	     1.0500	     0.9500;
	45	 1	 0.0	 0.0	 0.0	 0.0	 1	     1.0274	    28.2494	 400.0	 2	     1.0500	     0.9500;
	46	 1	 0.0	 0.0	 0.0	 0.0	 1	     1.1065	    28.4895	 220.0	 2	     1.1100	     0.9500;
	47	 1	 0.0	 0.0	 0.0	 0.0	 1	     1.0379	    25.8501	 400.0	 2	     1.0500	     0.9500;
	48	 1	 0.0	 0.0	 0.0	 0.0	 1	     1.0378	    25.8443	 400.0	 2	     1.0500	     0.9500;
	49	 1	 0.0	 0.0	 0.0	 0.0	 1	     1.0342	    27.7399	 400.0	 2	     1.0500	     0.9500;
	50	 1	 0.0	 0.0	 0.0	 0.0	 1	     1.0744	    27.0891	 220.0	 2	     1.1100	     0.9500;
	51	 1	 0.0	 0.0	 0.0	 0.0	 1	     1.0744	    27.0919	 220.0	 2	     1.1100	     0.9500;
	52	 1	 0.0	 0.0	 0.0	 0.0	 1	     1.0381	    28.4572	 400.0	 2	     1.0500	     0.9500;
	53	 1	 0.0	 0.0	 0.0	 0.0	 1	     1.0381	    28.4593	 400.0	 2	     1.0500	     0.9500;
	54	 2	 13.0	 0.0	 0.0	 0.0	 1	     1.0924	    29.6605	 220.0	 2	     1.1100	     0.9500;
	55	 2	 13.0	 0.0	 0.0	 0.0	 1	     1.0924	    29.6574	 220.0	 2	     1.1100	     0.9500;
	56	 2	 13.0	 0.0	 0.0	 0.0	 1	     1.0448	    29.3712	 400.0	 2	     1.0500	     0.9500;
	57	 2	 26.0	 0.0	 0.0	 0.0	 1	     1.0448	    29.3677	 400.0	 2	     1.0500	     0.9500;
	58	 2	 89.067	 40.0	 0.0	 0.0	 1	     1.0850	    27.4023	 220.0	 2	     1.1100	     0.9500;
	59	 1	 0.0	 0.0	 0.0	 0.0	 1	     1.0850	    27.4039	 220.0	 2	     1.1100	     0.9500;
	60	 1	 0.0	 0.0	 0.0	 0.0	 1	     1.1018	    28.4220	 220.0	 2	     1.1100	     0.9500;
	61	 1	 0.0	 0.0	 0.0	 0.0	 1	     1.0925	    27.3761	 220.0	 2	     1.1100	     0.9500;
	62	 1	 0.0	 0.0	 0.0	 0.0	 1	     1.0925	    27.3733	 220.0	 2	     1.1100	     0.9500;
	63	 1	 0.0	 0.0	 0.0	 0.0	 1	     1.0485	    28.2813	 400.0	 2	     1.0500	     0.9500;
	64	 1	 0.0	 0.0	 0.0	 0.0	 1	     1.0484	    28.2698	 400.0	 2	     1.0500	     0.9500;
	65	 1	 0.0	 0.0	 0.0	 0.0	 1	     1.0811	    27.5806	 220.0	 2	     1.1100	     0.9500;
	66	 1	 0.0	 0.0	 0.0	 0.0	 1	     1.0825	    27.7459	 220.0	 2	     1.1100	     0.9500;
	67	 1	 0.0	 0.0	 0.0	 0.0	 1	     1.0750	    27.8074	 220.0	 2	     1.1100	     0.9500;
	68	 1	 0.0	 0.0	 0.0	 0.0	 1	     1.1011	    32.5905	 220.0	 3	     1.1100	     0.9500;
	69	 1	 10.327	 0.0	 0.0	 0.0	 1	     1.0960	    29.3364	 220.0	 3	     1.1100	     0.9500;
	70	 1	 8.032	 3.714	 0.0	 0.0	 1	     1.0959	    29.3433	 220.0	 3	     1.1100	     0.9500;
	71	 1	 0.0	 0.0	 0.0	 0.0	 1	     1.0988	    32.3406	 220.0	 3	     1.1100	     0.9500;
	72	 1	 0.0	 0.0	 0.0	 0.0	 1	     1.0988	    32.3526	 220.0	 3	     1.1100	     0.9500;
	73	 1	 0.0	 0.0	 0.0	 0.0	 1	     1.0959	    32.0757	 220.0	 3	     1.1100	     0.9500;
	74	 1	 0.0	 0.0	 0.0	 0.0	 1	     1.0959	    32.0709	 220.0	 3	     1.1100	     0.9500;
	75	 1	 0.0	 0.0	 0.0	 0.0	 1	     1.0981	    30.7798	 220.0	 3	     1.1100	     0.9500;
	76	 1	 0.0	 0.0	 0.0	 0.0	 1	     1.0980	    30.7728	 220.0	 3	     1.1100	     0.9500;
	77	 2	 27.0	 70.0	 0.0	 0.0	 1	     1.1017	    33.1640	 220.0	 3	     1.1100	     0.9500;
	78	 2	 18.7	 42.0	 0.0	 0.0	 1	     1.1002	    33.2067	 220.0	 3	     1.1100	     0.9500;
	79	 1	 4.934	 0.817	 0.0	 0.0	 1	     1.0918	    31.8741	 220.0	 3	     1.1100	     0.9500;
	80	 1	 0.0	 0.0	 0.0	 0.0	 1	     1.0918	    31.8752	 220.0	 3	     1.1100	     0.9500;
	81	 2	 18.0	 57.0	 0.0	 0.0	 1	     1.0324	    32.1997	 400.0	 3	     1.0500	     0.9500;
	82	 1	 0.0	 0.0	 0.0	 0.0	 1	     1.0881	    31.1872	 220.0	 3	     1.1100	     0.9500;
	83	 1	 0.0	 0.0	 0.0	 0.0	 1	     1.0980	    31.5856	 220.0	 3	     1.1100	     0.9500;
	84	 1	 0.0	 0.0	 0.0	 0.0	 1	     1.0980	    31.5907	 220.0	 3	     1.1100	     0.9500;
	85	 1	 44.864	 -6.4	 0.0	 0.0	 1	     1.1020	    32.5785	 220.0	 3	     1.1100	     0.9500;
	86	 1	 0.0	 0.0	 0.0	 0.0	 1	     1.1020	    32.5733	 220.0	 3	     1.1100	     0.9500;
	87	 1	 0.0	 0.0	 0.0	 0.0	 1	     1.0922	    31.8904	 220.0	 3	     1.1100	     0.9500;
	88	 1	 0.0	 0.0	 0.0	 0.0	 1	     1.0921	    31.8961	 220.0	 3	     1.1100	     0.9500;
	89	 1	 0.0	 0.0	 0.0	 0.0	 1	     1.1033	    33.0330	 220.0	 3	     1.1100	     0.9500;
	90	 1	 0.0	 0.0	 0.0	 0.0	 1	     1.1033	    33.0286	 220.0	 3	     1.1100	     0.9500;
	91	 1	 0.0	 0.0	 0.0	 0.0	 1	     1.0476	    34.2081	 400.0	 3	     1.0500	     0.9500;
	92	 1	 0.0	 0.0	 0.0	 0.0	 1	     1.0476	    34.2064	 400.0	 3	     1.0500	     0.9500;
	93	 1	 0.0	 0.0	 0.0	 0.0	 1	     1.0935	    31.4822	 220.0	 3	     1.1100	     0.9500;
	94	 1	 0.0	 0.0	 0.0	 0.0	 1	     1.0935	    31.4777	 220.0	 3	     1.1100	     0.9500;
	95	 1	 0.0	 0.0	 0.0	 0.0	 1	     1.0928	    31.6853	 220.0	 3	     1.1100	     0.9500;
	96	 1	 0.0	 0.0	 0.0	 0.0	 1	     1.0927	    31.6828	 220.0	 3	     1.1100	     0.9500;
	97	 2	 12.49	 3.696	 0.0	 0.0	 1	     1.0989	    32.4551	 220.0	 3	     1.1100	     0.9500;
	98	 1	 17.327	 6.126	 0.0	 0.0	 1	     1.0989	    32.4485	 220.0	 3	     1.1100	     0.9500;
	99	 1	 0.0	 0.0	 0.0	 0.0	 1	     1.0961	    29.3608	 220.0	 3	     1.1100	     0.9500;
	100	 1	 0.0	 0.0	 0.0	 0.0	 1	     1.0961	    29.3606	 220.0	 3	     1.1100	     0.9500;
	101	 1	 0.0	 0.0	 0.0	 0.0	 1	     1.0915	    30.4061	 220.0	 3	     1.1100	     0.9500;
	102	 1	 0.0	 0.0	 0.0	 0.0	 1	     1.0914	    30.4064	 220.0	 3	     1.1100	     0.9500;
	103	 2	 14.0	 40.0	 0.0	 0.0	 1	     1.0995	    31.5628	 220.0	 3	     1.1100	     0.9500;
	104	 2	 0.0	 0.0	 0.0	 0.0	 1	     1.0995	    31.5358	 220.0	 3	     1.1100	     0.9500;
	105	 2	 7.0	 18.0	 0.0	 0.0	 1	     1.0952	    31.9647	 220.0	 3	     1.1100	     0.9500;
	106	 2	 0.0	 0.0	 0.0	 0.0	 1	     1.0951	    31.9621	 220.0	 3	     1.1100	     0.9500;
	107	 1	 0.0	 13.892	 0.0	 0.0	 1	     1.0994	    31.8938	 220.0	 3	     1.1100	     0.9500;
	108	 1	 73.779	 8.097	 0.0	 0.0	 1	     1.0994	    31.8843	 220.0	 3	     1.1100	     0.9500;
	109	 1	 0.0	 0.0	 0.0	 0.0	 1	     1.0936	    31.1510	 220.0	 3	     1.1100	     0.9500;
	110	 1	 0.0	 0.0	 0.0	 0.0	 1	     1.0870	    31.7770	 220.0	 3	     1.1100	     0.9500;
	111	 1	 0.0	 0.0	 0.0	 0.0	 1	     1.0871	    31.7775	 220.0	 3	     1.1100	     0.9500;
	112	 1	 0.0	 0.0	 0.0	 0.0	 1	     1.0929	    31.9515	 220.0	 3	     1.1100	     0.9500;
	113	 1	 0.0	 0.0	 0.0	 0.0	 1	     1.0930	    31.9606	 220.0	 3	     1.1100	     0.9500;
	114	 1	 0.0	 0.0	 0.0	 0.0	 1	     1.0415	    31.3154	 400.0	 3	     1.0500	     0.9500;
	115	 2	 0.0	 0.0	 0.0	 0.0	 1	     1.0997	    32.8428	 220.0	 3	     1.1100	     0.9500;
	116	 2	 8.0	 15.0	 0.0	 0.0	 1	     1.0997	    32.8451	 220.0	 3	     1.1100	     0.9500;
	117	 2	 5.5	 10.0	 0.0	 0.0	 1	     1.0981	    31.9634	 220.0	 3	     1.1100	     0.9500;
	118	 1	 0.0	 0.0	 0.0	 0.0	 1	     1.0981	    31.9545	 220.0	 3	     1.1100	     0.9500;
	119	 1	 0.0	 0.0	 0.0	 0.0	 1	     1.0496	    29.1009	 400.0	 3	     1.0500	     0.9500;
	120	 1	 0.0	 0.0	 0.0	 0.0	 1	     1.0496	    29.1057	 400.0	 3	     1.0500	     0.9500;
	121	 1	 0.0	 0.0	 0.0	 0.0	 1	     1.0500	    31.4824	 400.0	 3	     1.0500	     0.9500;
	122	 1	 0.0	 0.0	 0.0	 0.0	 1	     1.0500	    31.4876	 400.0	 3	     1.0500	     0.9500;
	123	 1	 0.0	 0.0	 0.0	 0.0	 1	     1.0929	    31.0850	 220.0	 3	     1.1100	     0.9500;
	124	 2	 11.0	 17.5	 0.0	 0.0	 1	     1.0994	    33.0096	 220.0	 3	     1.1100	     0.9500;
	125	 2	 41.353	 61.2	 0.0	 0.0	 1	     1.0993	    33.0271	 220.0	 3	     1.1100	     0.9500;
	126	 2	 14.0	 33.0	 0.0	 0.0	 1	     1.0364	    31.7139	 400.0	 3	     1.0500	     0.9500;
	127	 1	 0.0	 0.0	 0.0	 0.0	 1	     1.0364	    31.7144	 400.0	 3	     1.0500	     0.9500;
	128	 1	 0.0	 0.0	 0.0	 0.0	 1	     1.1014	    32.4701	 220.0	 3	     1.1100	     0.9500;
	129	 1	 0.0	 0.0	 0.0	 0.0	 1	     1.1014	    32.4723	 220.0	 3	     1.1100	     0.9500;
	130	 1	 0.0	 0.0	 0.0	 0.0	 1	     1.1019	    32.6963	 220.0	 3	     1.1100	     0.9500;
	131	 2	 1.5	 9.0	 0.0	 0.0	 1	     1.1009	    31.1324	 220.0	 3	     1.1100	     0.9500;
	132	 2	 0.0	 0.0	 0.0	 0.0	 1	     1.0981	    30.7726	 220.0	 3	     1.1100	     0.9500;
	133	 2	 11.215	 8.3	 0.0	 0.0	 1	     1.1100	    28.9038	 220.0	 4	     1.1100	     0.9500;
	134	 2	 10.333	 7.7	 0.0	 0.0	 1	     1.1099	    28.9011	 220.0	 4	     1.1100	     0.9500;
	135	 1	 0.0	 0.0	 0.0	 0.0	 1	     1.0811	    25.0032	 220.0	 4	     1.1100	     0.9500;
	136	 1	 0.0	 0.0	 0.0	 0.0	 1	     1.0828	    25.8453	 220.0	 4	     1.1100	     0.9500;
	137	 1	 0.0	 0.0	 0.0	 0.0	 1	     1.0066	    25.6296	 400.0	 4	     1.0500	     0.9500;
	138	 1	 0.0	 0.0	 0.0	 0.0	 1	     1.0066	    25.6296	 400.0	 4	     1.0500	     0.9500;
	139	 1	 0.0	 0.0	 0.0	 0.0	 1	     1.0954	    18.2019	 220.0	 4	     1.1100	     0.9500;
	140	 1	 0.0	 0.0	 0.0	 0.0	 1	     1.1001	    14.0876	 220.0	 4	     1.1100	     0.9500;
	141	 1	 0.0	 0.0	 0.0	 0.0	 1	     1.1001	    14.0876	 220.0	 4	     1.1100	     0.9500;
	142	 1	 0.0	 0.0	 0.0	 0.0	 1	     1.0997	    16.0138	 220.0	 4	     1.1100	     0.9500;
	143	 1	 0.0	 0.0	 0.0	 0.0	 1	     1.0777	    23.7065	 220.0	 4	     1.1100	     0.9500;
	144	 1	 0.0	 0.0	 0.0	 0.0	 1	     1.0777	    23.7065	 220.0	 4	     1.1100	     0.9500;
	145	 2	 0.0	 0.0	 0.0	 0.0	 1	     1.1089	    25.3893	 220.0	 4	     1.1100	     0.9500;
	146	 2	 0.0	 0.0	 0.0	 0.0	 1	     1.1089	    25.3883	 220.0	 4	     1.1100	     0.9500;
	147	 2	 25.553	 12.9	 0.0	 0.0	 1	     1.1100	    16.4028	 220.0	 4	     1.1100	     0.9500;
	148	 1	 0.0	 0.0	 0.0	 0.0	 1	     1.1099	    16.4075	 220.0	 4	     1.1100	     0.9500;
	149	 2	 11.0	 12.0	 0.0	 0.0	 1	     1.0402	    17.6648	 400.0	 4	     1.0500	     0.9500;
	150	 2	 11.922	 13.7	 0.0	 0.0	 1	     1.0402	    17.6658	 400.0	 4	     1.0500	     0.9500;
	151	 1	 0.0	 0.0	 0.0	 0.0	 1	     1.0697	    17.9194	 220.0	 4	     1.1100	     0.9500;
	152	 1	 0.0	 0.0	 0.0	 0.0	 1	     1.0969	    20.2471	 220.0	 4	     1.1100	     0.9500;
	153	 1	 0.0	 0.0	 0.0	 0.0	 1	     1.0969	    20.2427	 220.0	 4	     1.1100	     0.9500;
	154	 2	 19.475	 64.3	 0.0	 0.0	 1	     1.0865	    28.0050	 220.0	 4	     1.1100	     0.9500;
	155	 2	 16.0	 33.0	 0.0	 0.0	 1	     1.0865	    27.9967	 220.0	 4	     1.1100	     0.9500;
	156	 1	 0.0	 0.0	 0.0	 0.0	 1	     1.0044	    27.5617	 400.0	 4	     1.0500	     0.9500;
	157	 2	 10.0	 25.0	 0.0	 0.0	 1	     1.0043	    27.5674	 400.0	 4	     1.0500	     0.9500;
	158	 1	 0.0	 0.0	 0.0	 0.0	 1	     1.0991	    14.1220	 220.0	 4	     1.1100	     0.9500;
	159	 1	 0.0	 0.0	 0.0	 0.0	 1	     1.0991	    14.1220	 220.0	 4	     1.1100	     0.9500;
	160	 1	 0.0	 0.0	 0.0	 0.0	 1	     1.0127	    25.5960	 400.0	 4	     1.0500	     0.9500;
	161	 1	 0.0	 0.0	 0.0	 0.0	 1	     1.0154	    26.7406	 400.0	 4	     1.0500	     0.9500;
	162	 1	 0.0	 0.0	 0.0	 0.0	 1	     1.0153	    26.7365	 400.0	 4	     1.0500	     0.9500;
	163	 2	 5.54	 2.93	 0.0	 0.0	 1	     1.1100	    25.2174	 220.0	 4	     1.1100	     0.9500;
	164	 2	 18.255	 11.5	 0.0	 0.0	 1	     1.1100	    25.2087	 220.0	 4	     1.1100	     0.9500;
	165	 1	 0.0	 0.0	 0.0	 0.0	 1	     1.1100	    25.2087	 220.0	 4	     1.1100	     0.9500;
	166	 1	 0.0	 0.0	 0.0	 0.0	 1	     1.0904	    14.0885	 220.0	 4	     1.1100	     0.9500;
	167	 1	 0.0	 0.0	 0.0	 0.0	 1	     1.0992	    13.9576	 220.0	 4	     1.1100	     0.9500;
	168	 1	 0.0	 0.0	 0.0	 0.0	 1	     1.0934	    17.0561	 220.0	 4	     1.1100	     0.9500;
	169	 1	 0.0	 0.0	 0.0	 0.0	 1	     1.0934	    17.0484	 220.0	 4	     1.1100	     0.9500;
	170	 1	 0.0	 0.0	 0.0	 0.0	 1	     1.0281	    16.5618	 400.0	 4	     1.0500	     0.9500;
	171	 1	 0.0	 0.0	 0.0	 0.0	 1	     1.0281	    16.5618	 400.0	 4	     1.0500	     0.9500;
	172	 1	 0.0	 0.0	 0.0	 0.0	 1	     1.0679	    20.6015	 220.0	 4	     1.1100	     0.9500;
	173	 1	 0.0	 0.0	 0.0	 0.0	 1	     1.0679	    20.6077	 220.0	 4	     1.1100	     0.9500;
	174	 1	 0.0	 0.0	 0.0	 0.0	 1	     1.0911	    20.3532	 220.0	 4	     1.1100	     0.9500;
	175	 1	 0.0	 0.0	 0.0	 0.0	 1	     1.0803	    25.2570	 220.0	 4	     1.1100	     0.9500;
	176	 1	 0.0	 0.0	 0.0	 0.0	 1	     1.0803	    25.2660	 220.0	 4	     1.1100	     0.9500;
	177	 1	 0.0	 0.0	 0.0	 0.0	 1	     1.0817	    26.5573	 220.0	 4	     1.1100	     0.9500;
	178	 1	 0.0	 0.0	 0.0	 0.0	 1	     1.0817	    26.5573	 220.0	 4	     1.1100	     0.9500;
	179	 2	 3.13	 1.5	 0.0	 0.0	 1	     1.1099	    21.4869	 220.0	 4	     1.1100	     0.9500;
	180	 1	 0.0	 0.0	 0.0	 0.0	 1	     1.0674	    19.6577	 220.0	 4	     1.1100	     0.9500;
	181	 1	 0.0	 0.0	 0.0	 0.0	 1	     1.0733	    17.5540	 220.0	 5	     1.1100	     0.9500;
	182	 1	 0.0	 0.0	 0.0	 0.0	 1	     1.0911	    16.0046	 220.0	 5	     1.1100	     0.9500;
	183	 1	 0.0	 0.0	 0.0	 0.0	 1	     1.0378	    17.1324	 400.0	 5	     1.0500	     0.9500;
	184	 1	 0.0	 0.0	 0.0	 0.0	 1	     1.0378	    17.1305	 400.0	 5	     1.0500	     0.9500;
	185	 1	 0.0	 0.0	 0.0	 0.0	 1	     1.0321	    19.0822	 400.0	 5	     1.0500	     0.9500;
	186	 1	 0.0	 0.0	 0.0	 0.0	 1	     1.0321	    19.0784	 400.0	 5	     1.0500	     0.9500;
	187	 1	 0.0	 0.0	 0.0	 0.0	 1	     1.0800	    14.8903	 220.0	 5	     1.1100	     0.9500;
	188	 1	 0.0	 0.0	 0.0	 0.0	 1	     1.0800	    14.8891	 220.0	 5	     1.1100	     0.9500;
	189	 1	 0.0	 0.0	 0.0	 0.0	 1	     1.0759	    16.4483	 220.0	 5	     1.1100	     0.9500;
	190	 1	 0.0	 0.0	 0.0	 0.0	 1	     1.0758	    16.4509	 220.0	 5	     1.1100	     0.9500;
	191	 1	 0.0	 0.0	 0.0	 0.0	 1	     1.0183	    20.5020	 400.0	 5	     1.0500	     0.9500;
	192	 1	 0.0	 0.0	 0.0	 0.0	 1	     1.0770	    18.2238	 220.0	 5	     1.1100	     0.9500;
	193	 1	 0.0	 0.0	 0.0	 0.0	 1	     1.0770	    18.2264	 220.0	 5	     1.1100	     0.9500;
	194	 1	 0.0	 0.0	 0.0	 0.0	 1	     1.0327	    17.3551	 400.0	 5	     1.0500	     0.9500;
	195	 1	 0.0	 0.0	 0.0	 0.0	 1	     1.0326	    17.3509	 400.0	 5	     1.0500	     0.9500;
	196	 1	 0.0	 0.0	 0.0	 0.0	 1	     1.0748	    14.5100	 220.0	 5	     1.1100	     0.9500;
	197	 1	 0.0	 0.0	 0.0	 0.0	 1	     1.0748	    14.5099	 220.0	 5	     1.1100	     0.9500;
	198	 1	 0.0	 0.0	 0.0	 -117.0	 1	     1.0293	    18.1841	 400.0	 5	     1.0500	     0.9500;
	199	 1	 0.0	 0.0	 0.0	 0.0	 1	     1.0293	    18.1797	 400.0	 5	     1.0500	     0.9500;
	200	 1	 0.0	 0.0	 0.0	 0.0	 1	     1.0689	    16.1996	 220.0	 5	     1.1100	     0.9500;
...
];

%% generator data
%	bus	Pg	Qg	Qmax	Qmin	Vg	mBase	status	Pmax	Pmin	Pc1	Pc2	Qc1min	Qc1max	Qc2min	Qc2max	ramp_agc	ramp_10	ramp_30	ramp_q	apf
mpc.gen = [
	17	 0.0	 0.0	 120.0	 -22.0	 1.07106	 241.9	 0	 210.0	 140.0	 0.0	 0.0	 0.0	 0.0	 0.0	 0.0	 0.0	 0.0	 0.0	 0.0	 0.0;
	17	 0.0	 0.0	 120.0	 -22.0	 1.07106	 233.2	 0	 200.0	 140.0	 0.0	 0.0	 0.0	 0.0	 0.0	 0.0	 0.0	 0.0	 0.0	 0.0	 0.0;
	26	 370.0	 -19.0	 190.0	 -19.0	 1.09091	 415.9	 1	 370.0	 290.0	 0.0	 0.0	 0.0	 0.0	 0.0	 0.0	 0.0	 0.0	 0.0	 0.0	 0.0;
	27	 360.0	 174.108	 190.0	 -19.0	 1.09091	 407.1	 1	 360.0	 290.0	 0.0	 0.0	 0.0	 0.0	 0.0	 0.0	 0.0	 0.0	 0.0	 0.0	 0.0;
	27	 360.0	 -19.0	 190.0	 -19.0	 1.09091	 407.1	 1	 360.0	 290.0	 0.0	 0.0	 0.0	 0.0	 0.0	 0.0	 0.0	 0.0	 0.0	 0.0	 0.0;
	27	 370.0	 -17.3049	 190.0	 -19.0	 1.09091	 415.9	 1	 370.0	 290.0	 0.0	 0.0	 0.0	 0.0	 0.0	 0.0	 0.0	 0.0	 0.0	 0.0	 0.0;
	26	 370.0	 144.893	 190.0	 -19.0	 1.09091	 415.9	 1	 370.0	 290.0	 0.0	 0.0	 0.0	 0.0	 0.0	 0.0	 0.0	 0.0	 0.0	 0.0	 0.0;
	28	 370.0	 -19.0	 190.0	 -19.0	 1.02665	 415.9	 1	 370.0	 290.0	 0.0	 0.0	 0.0	 0.0	 0.0	 0.0	 0.0	 0.0	 0.0	 0.0	 0.0;
	28	 0.0	 0.0	 190.0	 -19.0	 1.02665	 415.9	 0	 370.0	 290.0	 0.0	 0.0	 0.0	 0.0	 0.0	 0.0	 0.0	 0.0	 0.0	 0.0	 0.0;
	28	 370.0	 -19.0	 190.0	 -19.0	 1.02665	 415.9	 1	 370.0	 290.0	 0.0	 0.0	 0.0	 0.0	 0.0	 0.0	 0.0	 0.0	 0.0	 0.0	 0.0;
	29	 0.0	 0.0	 190.0	 -19.0	 1.02665	 415.9	 0	 370.0	 290.0	 0.0	 0.0	 0.0	 0.0	 0.0	 0.0	 0.0	 0.0	 0.0	 0.0	 0.0;
	29	 370.0	 8.93896	 190.0	 -19.0	 1.02665	 415.9	 1	 370.0	 290.0	 0.0	 0.0	 0.0	 0.0	 0.0	 0.0	 0.0	 0.0	 0.0	 0.0	 0.0;
	29	 370.0	 -19.0	 190.0	 -19.0	 1.02665	 415.9	 1	 370.0	 290.0	 0.0	 0.0	 0.0	 0.0	 0.0	 0.0	 0.0	 0.0	 0.0	 0.0	 0.0;
	42	 130.0	 -34.0	 135.0	 -34.0	 1.09091	 253.9	 1	 215.0	 130.0	 0.0	 0.0	 0.0	 0.0	 0.0	 0.0	 0.0	 0.0	 0.0	 0.0	 0.0;
	42	 0.0	 0.0	 130.0	 -34.0	 1.09091	 242.7	 0	 205.0	 135.0	 0.0	 0.0	 0.0	 0.0	 0.0	 0.0	 0.0	 0.0	 0.0	 0.0	 0.0;
	42	 110.0	 -34.0	 145.0	 -34.0	 1.09091	 267.7	 1	 225.0	 110.0	 0.0	 0.0	 0.0	 0.0	 0.0	 0.0	 0.0	 0.0	 0.0	 0.0	 0.0;
	43	 120.0	 -34.0	 145.0	 -34.0	 1.09091	 267.7	 1	 225.0	 120.0	 0.0	 0.0	 0.0	 0.0	 0.0	 0.0	 0.0	 0.0	 0.0	 0.0	 0.0;
	43	 130.0	 -34.0	 145.0	 -34.0	 1.09091	 267.7	 1	 225.0	 130.0	 0.0	 0.0	 0.0	 0.0	 0.0	 0.0	 0.0	 0.0	 0.0	 0.0	 0.0;
	43	 0.0	 0.0	 130.0	 -34.0	 1.09091	 242.7	 0	 205.0	 135.0	 0.0	 0.0	 0.0	 0.0	 0.0	 0.0	 0.0	 0.0	 0.0	 0.0	 0.0;
	44	 433.768	 -47.0	 363.0	 -47.0	 1.01857	 646.5	 1	 535.0	 255.0	 0.0	 0.0	 0.0	 0.0	 0.0	 0.0	 0.0	 0.0	 0.0	 0.0	 0.0;
	44	 0.0	 0.0	 348.0	 -100.0	 1.01857	 659.3	 0	 560.0	 250.0	 0.0	 0.0	 0.0	 0.0	 0.0	 0.0	 0.0	 0.0	 0.0	 0.0	 0.0;
	54	 129.0	 -1.0	 104.0	 -1.0	 1.09116	 247.9	 1	 225.0	 129.0	 0.0	 0.0	 0.0	 0.0	 0.0	 0.0	 0.0	 0.0	 0.0	 0.0	 0.0;
	55	 129.0	 -16.0	 130.0	 -16.0	 1.09114	 259.9	 1	 225.0	 129.0	 0.0	 0.0	 0.0	 0.0	 0.0	 0.0	 0.0	 0.0	 0.0	 0.0	 0.0;
	54	 0.0	 0.0	 130.0	 -16.0	 1.09116	 259.9	 0	 225.0	 129.0	 0.0	 0.0	 0.0	 0.0	 0.0	 0.0	 0.0	 0.0	 0.0	 0.0	 0.0;
	56	 129.0	 -16.0	 130.0	 -16.0	 1.04039	 259.9	 1	 225.0	 129.0	 0.0	 0.0	 0.0	 0.0	 0.0	 0.0	 0.0	 0.0	 0.0	 0.0	 0.0;
	57	 129.0	 -16.0	 130.0	 -16.0	 1.04036	 259.9	 1	 225.0	 129.0	 0.0	 0.0	 0.0	 0.0	 0.0	 0.0	 0.0	 0.0	 0.0	 0.0	 0.0;
	57	 0.0	 0.0	 104.0	 -1.0	 1.04036	 247.9	 0	 225.0	 129.0	 0.0	 0.0	 0.0	 0.0	 0.0	 0.0	 0.0	 0.0	 0.0	 0.0	 0.0;
	57	 129.0	 -16.0	 130.0	 -16.0	 1.04036	 259.9	 1	 225.0	 129.0	 0.0	 0.0	 0.0	 0.0	 0.0	 0.0	 0.0	 0.0	 0.0	 0.0	 0.0;
	58	 48.1	 0.0	 30.0	 0.0	 1.08754	 66.5	 1	 48.1	 48.1	 0.0	 0.0	 0.0	 0.0	 0.0	 0.0	 0.0	 0.0	 0.0	 0.0	 0.0;
	77	 225.0	 56.4466	 123.0	 -15.0	 1.09091	 256.4	 1	 225.0	 140.0	 0.0	 0.0	 0.0	 0.0	 0.0	 0.0	 0.0	 0.0	 0.0	 0.0	 0.0;
	77	 225.0	 56.4466	 123.0	 -15.0	 1.09091	 256.4	 1	 225.0	 140.0	 0.0	 0.0	 0.0	 0.0	 0.0	 0.0	 0.0	 0.0	 0.0	 0.0	 0.0;
	78	 0.0	 0.0	 123.0	 -15.0	 1.09091	 252.0	 0	 220.0	 140.0	 0.0	 0.0	 0.0	 0.0	 0.0	 0.0	 0.0	 0.0	 0.0	 0.0	 0.0;
	78	 225.0	 0.0284002	 123.0	 -15.0	 1.09091	 256.4	 1	 225.0	 140.0	 0.0	 0.0	 0.0	 0.0	 0.0	 0.0	 0.0	 0.0	 0.0	 0.0	 0.0;
	78	 225.0	 0.0284002	 123.0	 -15.0	 1.09091	 256.4	 1	 225.0	 140.0	 0.0	 0.0	 0.0	 0.0	 0.0	 0.0	 0.0	 0.0	 0.0	 0.0	 0.0;
	81	 380.0	 -31.0	 232.0	 -31.0	 1.02168	 445.2	 1	 380.0	 220.0	 0.0	 0.0	 0.0	 0.0	 0.0	 0.0	 0.0	 0.0	 0.0	 0.0	 0.0;
	81	 0.0	 0.0	 228.0	 -30.0	 1.02168	 434.6	 0	 370.0	 220.0	 0.0	 0.0	 0.0	 0.0	 0.0	 0.0	 0.0	 0.0	 0.0	 0.0	 0.0;
	97	 9.0	 0.0	 1.0	 0.0	 1.08955	 12.0	 1	 9.0	 9.0	 0.0	 0.0	 0.0	 0.0	 0.0	 0.0	 0.0	 0.0	 0.0	 0.0	 0.0;
	97	 6.0	 0.0	 1.0	 0.0	 1.08955	 6.1	 1	 6.0	 6.0	 0.0	 0.0	 0.0	 0.0	 0.0	 0.0	 0.0	 0.0	 0.0	 0.0	 0.0;
	103	 225.0	 111.228	 123.0	 -15.0	 1.08905	 256.4	 1	 225.0	 134.0	 0.0	 0.0	 0.0	 0.0	 0.0	 0.0	 0.0	 0.0	 0.0	 0.0	 0.0;
	104	 0.0	 0.0	 123.0	 -15.0	 1.08898	 256.4	 0	 225.0	 134.0	 0.0	 0.0	 0.0	 0.0	 0.0	 0.0	 0.0	 0.0	 0.0	 0.0	 0.0;
	105	 120.0	 44.1891	 80.0	 -2.0	 1.0875	 144.2	 1	 120.0	 79.0	 0.0	 0.0	 0.0	 0.0	 0.0	 0.0	 0.0	 0.0	 0.0	 0.0	 0.0;
	106	 0.0	 0.0	 80.0	 -2.0	 1.0874	 144.2	 0	 120.0	 79.0	 0.0	 0.0	 0.0	 0.0	 0.0	 0.0	 0.0	 0.0	 0.0	 0.0	 0.0;
	115	 0.0	 0.0	 90.0	 -20.0	 1.08993	 150.0	 0	 120.0	 90.0	 0.0	 0.0	 0.0	 0.0	 0.0	 0.0	 0.0	 0.0	 0.0	 0.0	 0.0;
	116	 120.0	 -2.0	 82.0	 -2.0	 1.08992	 145.3	 1	 120.0	 70.0	 0.0	 0.0	 0.0	 0.0	 0.0	 0.0	 0.0	 0.0	 0.0	 0.0	 0.0;
	117	 110.0	 0.0	 40.0	 0.0	 1.08788	 117.0	 1	 110.0	 80.0	 0.0	 0.0	 0.0	 0.0	 0.0	 0.0	 0.0	 0.0	 0.0	 0.0	 0.0;
	124	 215.0	 -35.0	 135.0	 -35.0	 1.09093	 253.9	 1	 215.0	 160.0	 0.0	 0.0	 0.0	 0.0	 0.0	 0.0	 0.0	 0.0	 0.0	 0.0	 0.0;
	125	 225.0	 76.0784	 140.0	 -35.0	 1.09091	 265.0	 1	 225.0	 140.0	 0.0	 0.0	 0.0	 0.0	 0.0	 0.0	 0.0	 0.0	 0.0	 0.0	 0.0;
	125	 215.0	 -35.0	 135.0	 -35.0	 1.09091	 253.9	 1	 215.0	 160.0	 0.0	 0.0	 0.0	 0.0	 0.0	 0.0	 0.0	 0.0	 0.0	 0.0	 0.0;
	126	 225.0	 -40.0	 140.0	 -40.0	 1.02511	 265.0	 1	 225.0	 140.0	 0.0	 0.0	 0.0	 0.0	 0.0	 0.0	 0.0	 0.0	 0.0	 0.0	 0.0;
	126	 0.0	 0.0	 137.0	 -40.0	 1.02511	 259.2	 0	 220.0	 160.0	 0.0	 0.0	 0.0	 0.0	 0.0	 0.0	 0.0	 0.0	 0.0	 0.0	 0.0;
	131	 125.0	 40.0	 40.0	 -38.0	 1.08591	 131.2	 1	 125.0	 0.0	 0.0	 0.0	 0.0	 0.0	 0.0	 0.0	 0.0	 0.0	 0.0	 0.0	 0.0;
	131	 0.0	 0.0	 40.0	 -38.0	 1.08591	 131.2	 0	 125.0	 0.0	 0.0	 0.0	 0.0	 0.0	 0.0	 0.0	 0.0	 0.0	 0.0	 0.0	 0.0;
	132	 0.0	 0.0	 40.0	 -38.0	 1.08371	 131.2	 0	 125.0	 0.0	 0.0	 0.0	 0.0	 0.0	 0.0	 0.0	 0.0	 0.0	 0.0	 0.0	 0.0;
	132	 0.0	 0.0	 40.0	 -38.0	 1.08371	 131.2	 0	 125.0	 0.0	 0.0	 0.0	 0.0	 0.0	 0.0	 0.0	 0.0	 0.0	 0.0	 0.0	 0.0;
	133	 0.0	 0.0	 90.0	 0.0	 1.09091	 150.0	 0	 120.0	 100.0	 0.0	 0.0	 0.0	 0.0	 0.0	 0.0	 0.0	 0.0	 0.0	 0.0	 0.0;
	133	 120.0	 49.9848	 90.0	 0.0	 1.09091	 150.0	 1	 120.0	 100.0	 0.0	 0.0	 0.0	 0.0	 0.0	 0.0	 0.0	 0.0	 0.0	 0.0	 0.0;
	134	 120.0	 0.0	 90.0	 0.0	 1.09091	 150.0	 1	 120.0	 100.0	 0.0	 0.0	 0.0	 0.0	 0.0	 0.0	 0.0	 0.0	 0.0	 0.0	 0.0;
	145	 0.0	 0.0	 12.0	 0.0	 1.08954	 51.4	 0	 50.0	 30.0	 0.0	 0.0	 0.0	 0.0	 0.0	 0.0	 0.0	 0.0	 0.0	 0.0	 0.0;
	145	 0.0	 0.0	 12.0	 0.0	 1.08954	 51.4	 0	 50.0	 30.0	 0.0	 0.0	 0.0	 0.0	 0.0	 0.0	 0.0	 0.0	 0.0	 0.0	 0.0;
	146	 0.0	 0.0	 90.0	 0.0	 1.08953	 150.0	 0	 120.0	 90.0	 0.0	 0.0	 0.0	 0.0	 0.0	 0.0	 0.0	 0.0	 0.0	 0.0	 0.0;
	147	 0.0	 0.0	 149.0	 -48.0	 1.08582	 267.4	 0	 222.0	 90.0	 0.0	 0.0	 0.0	 0.0	 0.0	 0.0	 0.0	 0.0	 0.0	 0.0	 0.0;
	147	 0.0	 0.0	 149.0	 -48.0	 1.08582	 253.4	 0	 205.0	 135.0	 0.0	 0.0	 0.0	 0.0	 0.0	 0.0	 0.0	 0.0	 0.0	 0.0	 0.0;
	147	 0.0	 0.0	 149.0	 -48.0	 1.08582	 253.4	 0	 205.0	 135.0	 0.0	 0.0	 0.0	 0.0	 0.0	 0.0	 0.0	 0.0	 0.0	 0.0	 0.0;
	147	 90.0	 94.0447	 149.0	 -48.0	 1.08582	 267.4	 1	 222.0	 90.0	 0.0	 0.0	 0.0	 0.0	 0.0	 0.0	 0.0	 0.0	 0.0	 0.0	 0.0;
	149	 90.0	 -23.0	 123.0	 -23.0	 1.02501	 253.8	 1	 222.0	 90.0	 0.0	 0.0	 0.0	 0.0	 0.0	 0.0	 0.0	 0.0	 0.0	 0.0	 0.0;
	150	 90.0	 -48.0	 149.0	 -48.0	 1.025	 267.4	 1	 222.0	 90.0	 0.0	 0.0	 0.0	 0.0	 0.0	 0.0	 0.0	 0.0	 0.0	 0.0	 0.0;
	150	 0.0	 0.0	 123.0	 -23.0	 1.025	 253.8	 0	 222.0	 90.0	 0.0	 0.0	 0.0	 0.0	 0.0	 0.0	 0.0	 0.0	 0.0	 0.0	 0.0;
	154	 235.0	 -53.0	 149.0	 -53.0	 1.09091	 278.3	 1	 235.0	 94.0	 0.0	 0.0	 0.0	 0.0	 0.0	 0.0	 0.0	 0.0	 0.0	 0.0	 0.0;
	154	 0.0	 0.0	 149.0	 -53.0	 1.09091	 278.3	 0	 235.0	 94.0	 0.0	 0.0	 0.0	 0.0	 0.0	 0.0	 0.0	 0.0	 0.0	 0.0	 0.0;
	154	 261.0	 0.0	 120.0	 0.0	 1.09091	 287.3	 1	 261.0	 104.0	 0.0	 0.0	 0.0	 0.0	 0.0	 0.0	 0.0	 0.0	 0.0	 0.0	 0.0;
	154	 0.0	 0.0	 132.0	 -40.0	 1.09091	 292.5	 0	 261.0	 104.0	 0.0	 0.0	 0.0	 0.0	 0.0	 0.0	 0.0	 0.0	 0.0	 0.0	 0.0;
	155	 0.0	 0.0	 120.0	 0.0	 1.09091	 287.3	 0	 261.0	 104.0	 0.0	 0.0	 0.0	 0.0	 0.0	 0.0	 0.0	 0.0	 0.0	 0.0	 0.0;
	155	 205.0	 -22.0	 117.0	 -22.0	 1.09091	 236.0	 1	 205.0	 130.0	 0.0	 0.0	 0.0	 0.0	 0.0	 0.0	 0.0	 0.0	 0.0	 0.0	 0.0;
	155	 206.0	 -20.0	 109.0	 -20.0	 1.09091	 233.1	 1	 206.0	 120.0	 0.0	 0.0	 0.0	 0.0	 0.0	 0.0	 0.0	 0.0	 0.0	 0.0	 0.0;
	155	 0.0	 0.0	 109.0	 -20.0	 1.09091	 233.1	 0	 206.0	 120.0	 0.0	 0.0	 0.0	 0.0	 0.0	 0.0	 0.0	 0.0	 0.0	 0.0	 0.0;
	157	 206.0	 28.5083	 109.0	 -20.0	 1.00076	 233.1	 1	 206.0	 120.0	 0.0	 0.0	 0.0	 0.0	 0.0	 0.0	 0.0	 0.0	 0.0	 0.0	 0.0;
	163	 0.0	 0.0	 104.0	 -23.0	 1.09091	 225.4	 0	 200.0	 150.0	 0.0	 0.0	 0.0	 0.0	 0.0	 0.0	 0.0	 0.0	 0.0	 0.0	 0.0;
	163	 200.0	 64.6061	 104.0	 -23.0	 1.09091	 225.4	 1	 200.0	 150.0	 0.0	 0.0	 0.0	 0.0	 0.0	 0.0	 0.0	 0.0	 0.0	 0.0	 0.0;
	164	 200.0	 10.9272	 104.0	 -23.0	 1.09091	 225.4	 1	 200.0	 150.0	 0.0	 0.0	 0.0	 0.0	 0.0	 0.0	 0.0	 0.0	 0.0	 0.0	 0.0;
	164	 200.0	 104.0	 104.0	 -23.0	 1.09091	 225.4	 1	 200.0	 150.0	 0.0	 0.0	 0.0	 0.0	 0.0	 0.0	 0.0	 0.0	 0.0	 0.0	 0.0;
	179	 170.0	 65.6015	 110.0	 0.0	 1.09091	 219.5	 1	 170.0	 170.0	 0.0	 0.0	 0.0	 0.0	 0.0	 0.0	 0.0	 0.0	 0.0	 0.0	 0.0;
	204	 179.0	 -60.0	 110.0	 -60.0	 1.025	 210.1	 1	 179.0	 0.0	 0.0	 0.0	 0.0	 0.0	 0.0	 0.0	 0.0	 0.0	 0.0	 0.0	 0.0;
	204	 179.0	 110.0	 110.0	 -60.0	 1.025	 210.1	 1	 179.0	 0.0	 0.0	 0.0	 0.0	 0.0	 0.0	 0.0	 0.0	 0.0	 0.0	 0.0	 0.0;
	204	 179.0	 -60.0	 110.0	 -60.0	 1.025	 210.1	 1	 179.0	 0.0	 0.0	 0.0	 0.0	 0.0	 0.0	 0.0	 0.0	 0.0	 0.0	 0.0	 0.0;
	205	 179.0	 -14.8355	 110.0	 -60.0	 1.025	 210.1	 1	 179.0	 0.0	 0.0	 0.0	 0.0	 0.0	 0.0	 0.0	 0.0	 0.0	 0.0	 0.0	 0.0;
	214	 35.0	 0.0	 20.0	 0.0	 1.09209	 58.5	 1	 35.0	 35.0	 0.0	 0.0	 0.0	 0.0	 0.0	 0.0	 0.0	 0.0	 0.0	 0.0	 0.0;
	214	 0.0	 0.0	 20.0	 0.0	 1.09209	 53.9	 0	 0.0	 0.0	 0.0	 0.0	 0.0	 0.0	 0.0	 0.0	 0.0	 0.0	 0.0	 0.0	 0.0;
	214	 0.0	 0.0	 20.0	 0.0	 1.09209	 53.9	 0	 0.0	 0.0	 0.0	 0.0	 0.0	 0.0	 0.0	 0.0	 0.0	 0.0	 0.0	 0.0	 0.0;
	214	 10.0	 11.2737	 20.0	 0.0	 1.09209	 30.5	 1	 10.0	 10.0	 0.0	 0.0	 0.0	 0.0	 0.0	 0.0	 0.0	 0.0	 0.0	 0.0	 0.0;
	220	 1.55	 0.72928	 1.0	 0.0	 1.08853	 2.3	 1	 1.55	 1.55	 0.0	 0.0	 0.0	 0.0	 0.0	 0.0	 0.0	 0.0	 0.0	 0.0	 0.0;
	221	 1.55	 1.0	 1.0	 0.0	 1.07119	 2.3	 1	 1.55	 1.55	 0.0	 0.0	 0.0	 0.0	 0.0	 0.0	 0.0	 0.0	 0.0	 0.0	 0.0;
	239	 7.0	 6.0	 6.0	 0.0	 1.05821	 9.8	 1	 7.0	 7.0	 0.0	 0.0	 0.0	 0.0	 0.0	 0.0	 0.0	 0.0	 0.0	 0.0	 0.0;
	246	 370.0	 61.8297	 190.0	 -19.0	 1.03937	 415.9	 1	 370.0	 290.0	 0.0	 0.0	 0.0	 0.0	 0.0	 0.0	 0.0	 0.0	 0.0	 0.0	 0.0;
	309	 0.0	 0.0	 7.0	 0.0	 1.08081	 27.9	 0	 0.0	 0.0	 0.0	 0.0	 0.0	 0.0	 0.0	 0.0	 0.0	 0.0	 0.0	 0.0	 0.0;
	309	 0.0	 0.0	 7.0	 0.0	 1.08081	 27.9	 0	 0.0	 0.0	 0.0	 0.0	 0.0	 0.0	 0.0	 0.0	 0.0	 0.0	 0.0	 0.0	 0.0;
	309	 11.0	 7.0	 7.0	 4.0	 1.08081	 30.8	 1	 11.0	 11.0	 0.0	 0.0	 0.0	 0.0	 0.0	 0.0	 0.0	 0.0	 0.0	 0.0	 0.0;
	309	 0.0	 0.0	 7.0	 0.0	 1.08081	 27.9	 0	 0.0	 0.0	 0.0	 0.0	 0.0	 0.0	 0.0	 0.0	 0.0	 0.0	 0.0	 0.0	 0.0;
	309	 0.0	 0.0	 6.0	 0.0	 1.08081	 27.7	 0	 0.0	 0.0	 0.0	 0.0	 0.0	 0.0	 0.0	 0.0	 0.0	 0.0	 0.0	 0.0	 0.0;
	309	 0.0	 0.0	 7.0	 0.0	 1.08081	 27.9	 0	 0.0	 0.0	 0.0	 0.0	 0.0	 0.0	 0.0	 0.0	 0.0	 0.0	 0.0	 0.0	 0.0;
	309	 0.0	 0.0	 7.0	 0.0	 1.08081	 27.9	 0	 0.0	 0.0	 0.0	 0.0	 0.0	 0.0	 0.0	 0.0	 0.0	 0.0	 0.0	 0.0	 0.0;
	310	 15.0	 15.0	 15.0	 0.0	 1.08142	 36.7	 1	 15.0	 15.0	 0.0	 0.0	 0.0	 0.0	 0.0	 0.0	 0.0	 0.0	 0.0	 0.0	 0.0;
	310	 0.0	 0.0	 15.0	 0.0	 1.08142	 57.0	 0	 0.0	 0.0	 0.0	 0.0	 0.0	 0.0	 0.0	 0.0	 0.0	 0.0	 0.0	 0.0	 0.0;
	311	 15.0	 15.0	 15.0	 0.0	 1.0633	 36.7	 1	 15.0	 15.0	 0.0	 0.0	 0.0	 0.0	 0.0	 0.0	 0.0	 0.0	 0.0	 0.0	 0.0;
	311	 0.0	 0.0	 15.0	 0.0	 1.0633	 57.0	 0	 0.0	 0.0	 0.0	 0.0	 0.0	 0.0	 0.0	 0.0	 0.0	 0.0	 0.0	 0.0	 0.0;
	313	 30.0	 20.0	 20.0	 0.0	 1.08629	 53.9	 1	 30.0	 30.0	 0.0	 0.0	 0.0	 0.0	 0.0	 0.0	 0.0	 0.0	 0.0	 0.0	 0.0;
	313	 0.0	 0.0	 20.0	 0.0	 1.08629	 53.9	 0	 0.0	 0.0	 0.0	 0.0	 0.0	 0.0	 0.0	 0.0	 0.0	 0.0	 0.0	 0.0	 0.0;
	314	 0.0	 0.0	 40.0	 0.0	 1.07946	 107.7	 0	 0.0	 0.0	 0.0	 0.0	 0.0	 0.0	 0.0	 0.0	 0.0	 0.0	 0.0	 0.0	 0.0;
	322	 2.5	 3.0	 3.0	 0.0	 1.08468	 4.1	 1	 2.5	 2.5	 0.0	 0.0	 0.0	 0.0	 0.0	 0.0	 0.0	 0.0	 0.0	 0.0	 0.0;
	365	 43.25	 12.0	 12.0	 0.0	 1.08196	 47.8	 1	 43.25	 43.25	 0.0	 0.0	 0.0	 0.0	 0.0	 0.0	 0.0	 0.0	 0.0	 0.0	 0.0;
	366	 43.25	 12.0	 12.0	 0.0	 1.06579	 47.8	 1	 43.25	 43.25	 0.0	 0.0	 0.0	 0.0	 0.0	 0.0	 0.0	 0.0	 0.0	 0.0	 0.0;
	367	 43.25	 8.7805	 12.0	 0.0	 1.08899	 47.8	 1	 43.25	 43.25	 0.0	 0.0	 0.0	 0.0	 0.0	 0.0	 0.0	 0.0	 0.0	 0.0	 0.0;
	368	 43.25	 12.0	 12.0	 0.0	 1.08537	 47.8	 1	 43.25	 43.25	 0.0	 0.0	 0.0	 0.0	 0.0	 0.0	 0.0	 0.0	 0.0	 0.0	 0.0;
	385	 140.0	 40.9072	 138.0	 -47.0	 1.09091	 251.3	 1	 210.0	 140.0	 0.0	 0.0	 0.0	 0.0	 0.0	 0.0	 0.0	 0.0	 0.0	 0.0	 0.0;
	385	 0.0	 0.0	 10.0	 0.0	 1.09091	 26.9	 0	 25.0	 12.0	 0.0	 0.0	 0.0	 0.0	 0.0	 0.0	 0.0	 0.0	 0.0	 0.0	 0.0;
	386	 10.0	 7.0916	 10.0	 0.0	 1.0782	 19.7	 1	 17.0	 10.0	 0.0	 0.0	 0.0	 0.0	 0.0	 0.0	 0.0	 0.0	 0.0	 0.0	 0.0;
	443	 1.5	 2.0	 2.0	 0.0	 1.04966	 3.6	 1	 1.5	 1.5	 0.0	 0.0	 0.0	 0.0	 0.0	 0.0	 0.0	 0.0	 0.0	 0.0	 0.0;
	452	 5.21	 2.0	 2.0	 0.0	 1.07378	 6.1	 1	 5.21	 5.21	 0.0	 0.0	 0.0	 0.0	 0.0	 0.0	 0.0	 0.0	 0.0	 0.0	 0.0;
	452	 0.0	 0.0	 2.0	 0.0	 1.07378	 6.1	 0	 0.0	 0.0	 0.0	 0.0	 0.0	 0.0	 0.0	 0.0	 0.0	 0.0	 0.0	 0.0	 0.0;
	485	 1.4	 0.7	 0.7	 0.0	 1.05018	 1.7	 1	 1.4	 1.4	 0.0	 0.0	 0.0	 0.0	 0.0	 0.0	 0.0	 0.0	 0.0	 0.0	 0.0;
	536	 40.0	 14.0	 14.0	 0.0	 1.06099	 53.9	 1	 40.0	 40.0	 0.0	 0.0	 0.0	 0.0	 0.0	 0.0	 0.0	 0.0	 0.0	 0.0	 0.0;
	536	 0.0	 0.0	 14.0	 0.0	 1.06099	 34.9	 0	 0.0	 0.0	 0.0	 0.0	 0.0	 0.0	 0.0	 0.0	 0.0	 0.0	 0.0	 0.0	 0.0;
	536	 0.0	 0.0	 14.0	 0.0	 1.06099	 34.0	 0	 0.0	 0.0	 0.0	 0.0	 0.0	 0.0	 0.0	 0.0	 0.0	 0.0	 0.0	 0.0	 0.0;
	536	 0.0	 0.0	 14.0	 0.0	 1.06099	 105.9	 0	 0.0	 0.0	 0.0	 0.0	 0.0	 0.0	 0.0	 0.0	 0.0	 0.0	 0.0	 0.0	 0.0;
	536	 0.0	 0.0	 14.0	 0.0	 1.06099	 105.9	 0	 0.0	 0.0	 0.0	 0.0	 0.0	 0.0	 0.0	 0.0	 0.0	 0.0	 0.0	 0.0	 0.0;
	537	 25.0	 17.5	 17.5	 0.0	 1.05485	 36.5	 1	 25.0	 25.0	 0.0	 0.0	 0.0	 0.0	 0.0	 0.0	 0.0	 0.0	 0.0	 0.0	 0.0;
	537	 25.0	 17.5	 17.5	 0.0	 1.05485	 35.6	 1	 25.0	 25.0	 0.0	 0.0	 0.0	 0.0	 0.0	 0.0	 0.0	 0.0	 0.0	 0.0	 0.0;
	537	 0.0	 0.0	 17.5	 0.0	 1.05485	 126.2	 0	 0.0	 0.0	 0.0	 0.0	 0.0	 0.0	 0.0	 0.0	 0.0	 0.0	 0.0	 0.0	 0.0;
	537	 0.0	 0.0	 17.5	 0.0	 1.05485	 106.4	 0	 0.0	 0.0	 0.0	 0.0	 0.0	 0.0	 0.0	 0.0	 0.0	 0.0	 0.0	 0.0	 0.0;
	551	 1.4	 0.7	 0.7	 0.0	 1.05264	 1.7	 1	 1.4	 1.4	 0.0	 0.0	 0.0	 0.0	 0.0	 0.0	 0.0	 0.0	 0.0	 0.0	 0.0;
	559	 30.0	 5.0	 5.0	 0.0	 1.05731	 34.4	 1	 30.0	 30.0	 0.0	 0.0	 0.0	 0.0	 0.0	 0.0	 0.0	 0.0	 0.0	 0.0	 0.0;
	559	 0.0	 0.0	 5.0	 0.0	 1.05731	 28.4	 0	 0.0	 0.0	 0.0	 0.0	 0.0	 0.0	 0.0	 0.0	 0.0	 0.0	 0.0	 0.0	 0.0;
	559	 0.0	 0.0	 5.0	 0.0	 1.05731	 26.5	 0	 0.0	 0.0	 0.0	 0.0	 0.0	 0.0	 0.0	 0.0	 0.0	 0.0	 0.0	 0.0	 0.0;
	559	 0.0	 0.0	 5.0	 0.0	 1.05731	 30.4	 0	 0.0	 0.0	 0.0	 0.0	 0.0	 0.0	 0.0	 0.0	 0.0	 0.0	 0.0	 0.0	 0.0;
	559	 0.0	 0.0	 5.0	 0.0	 1.05731	 34.4	 0	 0.0	 0.0	 0.0	 0.0	 0.0	 0.0	 0.0	 0.0	 0.0	 0.0	 0.0	 0.0	 0.0;
	560	 30.0	 5.0	 5.0	 0.0	 1.05563	 34.4	 1	 30.0	 30.0	 0.0	 0.0	 0.0	 0.0	 0.0	 0.0	 0.0	 0.0	 0.0	 0.0	 0.0;
	560	 0.0	 0.0	 5.0	 0.0	 1.05563	 34.4	 0	 0.0	 0.0	 0.0	 0.0	 0.0	 0.0	 0.0	 0.0	 0.0	 0.0	 0.0	 0.0	 0.0;
	560	 0.0	 0.0	 5.0	 0.0	 1.05563	 26.5	 0	 0.0	 0.0	 0.0	 0.0	 0.0	 0.0	 0.0	 0.0	 0.0	 0.0	 0.0	 0.0	 0.0;
	560	 0.0	 0.0	 5.0	 0.0	 1.05563	 34.4	 0	 0.0	 0.0	 0.0	 0.0	 0.0	 0.0	 0.0	 0.0	 0.0	 0.0	 0.0	 0.0	 0.0;
	573	 1.0	 4.0	 4.0	 0.0	 1.07878	 8.9	 1	 1.0	 1.0	 0.0	 0.0	 0.0	 0.0	 0.0	 0.0	 0.0	 0.0	 0.0	 0.0	 0.0;
	626	 78.0	 0.0	 30.0	 0.0	 1.09062	 97.7	 1	 78.0	 78.0	 0.0	 0.0	 0.0	 0.0	 0.0	 0.0	 0.0	 0.0	 0.0	 0.0	 0.0;
	626	 30.0	 0.0	 30.0	 0.0	 1.09062	 46.8	 1	 30.0	 30.0	 0.0	 0.0	 0.0	 0.0	 0.0	 0.0	 0.0	 0.0	 0.0	 0.0	 0.0;
	664	 130.0	 57.2913	 145.0	 -34.0	 1.09109	 267.7	 1	 225.0	 130.0	 0.0	 0.0	 0.0	 0.0	 0.0	 0.0	 0.0	 0.0	 0.0	 0.0	 0.0;
	665	 0.0	 0.0	 145.0	 -34.0	 1.09081	 267.7	 0	 225.0	 130.0	 0.0	 0.0	 0.0	 0.0	 0.0	 0.0	 0.0	 0.0	 0.0	 0.0	 0.0;
	685	 150.0	 0.0	 30.0	 0.0	 1.0956	 182.5	 1	 150.0	 150.0	 0.0	 0.0	 0.0	 0.0	 0.0	 0.0	 0.0	 0.0	 0.0	 0.0	 0.0;
	685	 50.0	 0.0	 30.0	 0.0	 1.0956	 77.5	 1	 50.0	 50.0	 0.0	 0.0	 0.0	 0.0	 0.0	 0.0	 0.0	 0.0	 0.0	 0.0	 0.0;
	691	 2.43	 0.0	 1.8	 0.0	 1.08826	 3.1	 1	 2.43	 2.43	 0.0	 0.0	 0.0	 0.0	 0.0	 0.0	 0.0	 0.0	 0.0	 0.0	 0.0;
	716	 1.47	 0.0	 1.3	 0.0	 1.0787	 10.1	 1	 1.47	 1.47	 0.0	 0.0	 0.0	 0.0	 0.0	 0.0	 0.0	 0.0	 0.0	 0.0	 0.0;
	740	 129.0	 -16.0	 130.0	 -16.0	 1.09091	 259.9	 1	 225.0	 129.0	 0.0	 0.0	 0.0	 0.0	 0.0	 0.0	 0.0	 0.0	 0.0	 0.0	 0.0;
	763	 86.0	 0.0	 30.0	 0.0	 1.07793	 105.4	 1	 86.0	 86.0	 0.0	 0.0	 0.0	 0.0	 0.0	 0.0	 0.0	 0.0	 0.0	 0.0	 0.0;
	792	 1.0	 0.315172	 1.0	 0.0	 1.05313	 8.4	 1	 1.0	 1.0	 0.0	 0.0	 0.0	 0.0	 0.0	 0.0	 0.0	 0.0	 0.0	 0.0	 0.0;
	796	 68.1	 1.91188	 23.0	 0.0	 1.06122	 71.9	 1	 68.1	 5.0	 0.0	 0.0	 0.0	 0.0	 0.0	 0.0	 0.0	 0.0	 0.0	 0.0	 0.0;
	796	 0.0	 0.0	 23.0	 0.0	 1.06122	 71.9	 0	 68.1	 5.0	 0.0	 0.0	 0.0	 0.0	 0.0	 0.0	 0.0	 0.0	 0.0	 0.0	 0.0;
	796	 0.0	 0.0	 11.0	 0.0	 1.06122	 32.9	 0	 31.0	 16.0	 0.0	 0.0	 0.0	 0.0	 0.0	 0.0	 0.0	 0.0	 0.0	 0.0	 0.0;
	796	 0.0	 0.0	 10.0	 0.0	 1.06122	 32.6	 0	 31.0	 16.0	 0.0	 0.0	 0.0	 0.0	 0.0	 0.0	 0.0	 0.0	 0.0	 0.0	 0.0;
	807	 0.0	 0.0	 10.0	 0.0	 1.08198	 125.4	 0	 125.0	 84.0	 0.0	 0.0	 0.0	 0.0	 0.0	 0.0	 0.0	 0.0	 0.0	 0.0	 0.0;
	808	 92.0	 0.0	 10.0	 0.0	 1.08715	 125.4	 1	 125.0	 92.0	 0.0	 0.0	 0.0	 0.0	 0.0	 0.0	 0.0	 0.0	 0.0	 0.0	 0.0;
	845	 15.0	 0.0	 8.1	 0.0	 1.07142	 33.0	 1	 15.0	 15.0	 0.0	 0.0	 0.0	 0.0	 0.0	 0.0	 0.0	 0.0	 0.0	 0.0	 0.0;
	845	 15.0	 0.0	 8.1	 0.0	 1.07142	 33.0	 1	 15.0	 15.0	 0.0	 0.0	 0.0	 0.0	 0.0	 0.0	 0.0	 0.0	 0.0	 0.0	 0.0;
	845	 0.0	 0.0	 0.0	 0.0	 1.07142	 19.0	 0	 0.0	 0.0	 0.0	 0.0	 0.0	 0.0	 0.0	 0.0	 0.0	 0.0	 0.0	 0.0	 0.0;
	845	 0.0	 0.0	 0.0	 0.0	 1.07142	 19.0	 0	 0.0	 0.0	 0.0	 0.0	 0.0	 0.0	 0.0	 0.0	 0.0	 0.0	 0.0	 0.0	 0.0;
	877	 35.0	 12.9886	 41.2	 0.0	 1.08527	 87.7	 1	 35.0	 35.0	 0.0	 0.0	 0.0	 0.0	 0.0	 0.0	 0.0	 0.0	 0.0	 0.0	 0.0;
	900	 0.0	 0.0	 45.0	 -10.0	 1.07146	 65.8	 0	 0.0	 0.0	 0.0	 0.0	 0.0	 0.0	 0.0	 0.0	 0.0	 0.0	 0.0	 0.0	 0.0;
	900	 50.0	 20.7457	 45.0	 -10.0	 1.07146	 71.1	 1	 50.0	 50.0	 0.0	 0.0	 0.0	 0.0	 0.0	 0.0	 0.0	 0.0	 0.0	 0.0	 0.0;
	900	 0.0	 0.0	 45.0	 -10.0	 1.07146	 71.1	 0	 0.0	 0.0	 0.0	 0.0	 0.0	 0.0	 0.0	 0.0	 0.0	 0.0	 0.0	 0.0	 0.0;
	975	 0.0	 0.0	 110.0	 -40.0	 1.07686	 162.2	 0	 0.0	 0.0	 0.0	 0.0	 0.0	 0.0	 0.0	 0.0	 0.0	 0.0	 0.0	 0.0	 0.0;
	976	 100.0	 33.7466	 110.0	 -40.0	 1.08609	 162.2	 1	 100.0	 100.0	 0.0	 0.0	 0.0	 0.0	 0.0	 0.0	 0.0	 0.0	 0.0	 0.0	 0.0;
	980	 0.0	 0.0	 0.0	 0.0	 1.08643	 16.8	 0	 0.0	 0.0	 0.0	 0.0	 0.0	 0.0	 0.0	 0.0	 0.0	 0.0	 0.0	 0.0	 0.0;
	1001	 386.0	 19.2843	 240.0	 -32.0	 1.10276	 454.5	 1	 386.0	 220.0	 0.0	 0.0	 0.0	 0.0	 0.0	 0.0	 0.0	 0.0	 0.0	 0.0	 0.0;
	1002	 370.0	 51.821	 227.0	 -30.0	 1.09091	 434.1	 1	 370.0	 220.0	 0.0	 0.0	 0.0	 0.0	 0.0	 0.0	 0.0	 0.0	 0.0	 0.0	 0.0;
	1006	 6.0	 1.447	 1.447	 0.0	 1.08426	 7.1	 1	 6.0	 6.0	 0.0	 0.0	 0.0	 0.0	 0.0	 0.0	 0.0	 0.0	 0.0	 0.0	 0.0;
	1005	 4.0	 0.447	 0.447	 0.0	 1.08426	 4.0	 1	 4.0	 4.0	 0.0	 0.0	 0.0	 0.0	 0.0	 0.0	 0.0	 0.0	 0.0	 0.0	 0.0;
	1006	 4.0	 0.447	 0.447	 0.0	 1.08426	 5.0	 1	 4.0	 4.0	 0.0	 0.0	 0.0	 0.0	 0.0	 0.0	 0.0	 0.0	 0.0	 0.0	 0.0;
	1006	 0.0	 0.0	 0.0	 0.0	 1.08426	 6.0	 0	 0.0	 0.0	 0.0	 0.0	 0.0	 0.0	 0.0	 0.0	 0.0	 0.0	 0.0	 0.0	 0.0;
	1007	 0.0	 0.0	 110.0	 -40.0	 1.08332	 174.1	 0	 0.0	 0.0	 0.0	 0.0	 0.0	 0.0	 0.0	 0.0	 0.0	 0.0	 0.0	 0.0	 0.0;
	1013	 15.0	 4.8	 4.8	 0.0	 1.07931	 20.6	 1	 15.0	 15.0	 0.0	 0.0	 0.0	 0.0	 0.0	 0.0	 0.0	 0.0	 0.0	 0.0	 0.0;
	1013	 0.0	 0.0	 0.0	 0.0	 1.07931	 12.8	 0	 0.0	 0.0	 0.0	 0.0	 0.0	 0.0	 0.0	 0.0	 0.0	 0.0	 0.0	 0.0	 0.0;
	1013	 0.0	 0.0	 0.0	 0.0	 1.07931	 12.5	 0	 0.0	 0.0	 0.0	 0.0	 0.0	 0.0	 0.0	 0.0	 0.0	 0.0	 0.0	 0.0	 0.0;
	1015	 0.0	 0.0	 0.0	 0.0	 1.07594	 20.0	 0	 0.0	 0.0	 0.0	 0.0	 0.0	 0.0	 0.0	 0.0	 0.0	 0.0	 0.0	 0.0	 0.0;
	1015	 0.0	 0.0	 0.0	 0.0	 1.07594	 19.0	 0	 0.0	 0.0	 0.0	 0.0	 0.0	 0.0	 0.0	 0.0	 0.0	 0.0	 0.0	 0.0	 0.0;
	1024	 12.0	 18.0	 18.0	 9.0	 1.05936	 30.0	 1	 12.0	 12.0	 0.0	 0.0	 0.0	 0.0	 0.0	 0.0	 0.0	 0.0	 0.0	 0.0	 0.0;
	1025	 0.0	 0.0	 18.0	 9.0	 1.05941	 30.0	 0	 0.0	 0.0	 0.0	 0.0	 0.0	 0.0	 0.0	 0.0	 0.0	 0.0	 0.0	 0.0	 0.0;
	1026	 0.0	 0.0	 14.0	 10.5	 1.05936	 32.2	 0	 0.0	 0.0	 0.0	 0.0	 0.0	 0.0	 0.0	 0.0	 0.0	 0.0	 0.0	 0.0	 0.0;
	1113	 0.0	 0.0	 37.5	 16.8	 1.08345	 62.5	 0	 0.0	 0.0	 0.0	 0.0	 0.0	 0.0	 0.0	 0.0	 0.0	 0.0	 0.0	 0.0	 0.0;
	1114	 0.0	 0.0	 37.5	 7.5	 1.07469	 62.5	 0	 0.0	 0.0	 0.0	 0.0	 0.0	 0.0	 0.0	 0.0	 0.0	 0.0	 0.0	 0.0	 0.0;
	1113	 50.0	 37.5	 37.5	 7.5	 1.08345	 62.5	 1	 50.0	 50.0	 0.0	 0.0	 0.0	 0.0	 0.0	 0.0	 0.0	 0.0	 0.0	 0.0	 0.0;
	1115	 0.0	 0.0	 37.5	 16.8	 1.08094	 62.5	 0	 0.0	 0.0	 0.0	 0.0	 0.0	 0.0	 0.0	 0.0	 0.0	 0.0	 0.0	 0.0	 0.0;
	1152	 17.0	 5.251	 5.251	 0.0	 1.06515	 30.5	 1	 17.0	 17.0	 0.0	 0.0	 0.0	 0.0	 0.0	 0.0	 0.0	 0.0	 0.0	 0.0	 0.0;
	1152	 0.0	 0.0	 0.0	 0.0	 1.06515	 6.0	 0	 0.0	 0.0	 0.0	 0.0	 0.0	 0.0	 0.0	 0.0	 0.0	 0.0	 0.0	 0.0	 0.0;
	1153	 17.0	 5.251	 5.251	 0.0	 1.06525	 30.5	 1	 17.0	 17.0	 0.0	 0.0	 0.0	 0.0	 0.0	 0.0	 0.0	 0.0	 0.0	 0.0	 0.0;
	1153	 0.0	 0.0	 0.0	 0.0	 1.06525	 25.0	 0	 0.0	 0.0	 0.0	 0.0	 0.0	 0.0	 0.0	 0.0	 0.0	 0.0	 0.0	 0.0	 0.0;
	1154	 16.0	 5.25	 5.25	 0.0	 1.06879	 30.5	 1	 16.0	 16.0	 0.0	 0.0	 0.0	 0.0	 0.0	 0.0	 0.0	 0.0	 0.0	 0.0	 0.0;
	1154	 0.0	 0.0	 0.0	 0.0	 1.06879	 6.0	 0	 0.0	 0.0	 0.0	 0.0	 0.0	 0.0	 0.0	 0.0	 0.0	 0.0	 0.0	 0.0	 0.0;
	1179	 70.0	 37.7826	 52.5	 0.0	 1.08436	 87.5	 1	 70.0	 70.0	 0.0	 0.0	 0.0	 0.0	 0.0	 0.0	 0.0	 0.0	 0.0	 0.0	 0.0;
	1180	 0.0	 0.0	 52.5	 0.0	 1.07255	 87.5	 0	 0.0	 0.0	 0.0	 0.0	 0.0	 0.0	 0.0	 0.0	 0.0	 0.0	 0.0	 0.0	 0.0;
	1180	 0.0	 0.0	 42.0	 16.8	 1.07255	 65.3	 0	 0.0	 0.0	 0.0	 0.0	 0.0	 0.0	 0.0	 0.0	 0.0	 0.0	 0.0	 0.0	 0.0;
	1188	 50.0	 0.0	 0.0	 0.0	 1.0801	 50.0	 1	 50.0	 50.0	 0.0	 0.0	 0.0	 0.0	 0.0	 0.0	 0.0	 0.0	 0.0	 0.0	 0.0;
	1246	 10.0	 2.0	 2.0	 0.0	 1.07803	 16.7	 1	 10.0	 10.0	 0.0	 0.0	 0.0	 0.0	 0.0	 0.0	 0.0	 0.0	 0.0	 0.0	 0.0;
	1246	 0.0	 0.0	 0.0	 0.0	 1.07803	 24.0	 0	 0.0	 0.0	 0.0	 0.0	 0.0	 0.0	 0.0	 0.0	 0.0	 0.0	 0.0	 0.0	 0.0;
	1247	 0.0	 0.0	 0.0	 0.0	 1.06772	 14.6	 0	 0.0	 0.0	 0.0	 0.0	 0.0	 0.0	 0.0	 0.0	 0.0	 0.0	 0.0	 0.0	 0.0;
	1247	 0.0	 0.0	 0.0	 0.0	 1.06772	 14.6	 0	 0.0	 0.0	 0.0	 0.0	 0.0	 0.0	 0.0	 0.0	 0.0	 0.0	 0.0	 0.0	 0.0;
...
];

%% generator cost data
%	2	startup	shutdown	n	c(n-1)	...	c0
mpc.gencost = [
	2	 0.0	 0.0	 3	   0.000000	 112.780000	   0.000000;
	2	 0.0	 0.0	 3	   0.000000	 112.780000	   0.000000;
	2	 0.0	 0.0	 3	   0.000000	  76.100000	   0.000000;
	2	 0.0	 0.0	 3	   0.000000	  76.100000	   0.000000;
	2	 0.0	 0.0	 3	   0.000000	  76.100000	   0.000000;
	2	 0.0	 0.0	 3	   0.000000	  76.100000	   0.000000;
	2	 0.0	 0.0	 3	   0.000000	  76.100000	   0.000000;
	2	 0.0	 0.0	 3	   0.000000	  76.100000	   0.000000;
	2	 0.0	 0.0	 3	   0.000000	  76.100000	   0.000000;
	2	 0.0	 0.0	 3	   0.000000	  76.100000	   0.000000;
	2	 0.0	 0.0	 3	   0.000000	  76.100000	   0.000000;
	2	 0.0	 0.0	 3	   0.000000	  76.100000	   0.000000;
	2	 0.0	 0.0	 3	   0.000000	  76.100000	   0.000000;
	2	 0.0	 0.0	 3	   0.000000	 102.050000	   0.000000;
	2	 0.0	 0.0	 3	   0.000000	 102.050000	   0.000000;
	2	 0.0	 0.0	 3	   0.000000	 102.050000	   0.000000;
	2	 0.0	 0.0	 3	   0.000000	 102.050000	   0.000000;
	2	 0.0	 0.0	 3	   0.000000	 102.050000	   0.000000;
	2	 0.0	 0.0	 3	   0.000000	 102.050000	   0.000000;
	2	 0.0	 0.0	 3	   0.000000	 102.050000	   0.000000;
	2	 0.0	 0.0	 3	   0.000000	 102.050000	   0.000000;
	2	 0.0	 0.0	 3	   0.000000	 105.350000	   0.000000;
	2	 0.0	 0.0	 3	   0.000000	 105.350000	   0.000000;
	2	 0.0	 0.0	 3	   0.000000	 105.350000	   0.000000;
	2	 0.0	 0.0	 3	   0.000000	 105.350000	   0.000000;
	2	 0.0	 0.0	 3	   0.000000	 105.350000	   0.000000;
	2	 0.0	 0.0	 3	   0.000000	 105.350000	   0.000000;
	2	 0.0	 0.0	 3	   0.000000	 105.350000	   0.000000;
	2	 0.0	 0.0	 3	   0.000000	   0.000000	   0.000000;
	2	 0.0	 0.0	 3	   0.000000	  95.310000	   0.000000;
	2	 0.0	 0.0	 3	   0.000000	  95.310000	   0.000000;
	2	 0.0	 0.0	 3	   0.000000	  95.310000	   0.000000;
	2	 0.0	 0.0	 3	   0.000000	  95.310000	   0.000000;
	2	 0.0	 0.0	 3	   0.000000	  95.310000	   0.000000;
	2	 0.0	 0.0	 3	   0.000000	  90.030000	   0.000000;
	2	 0.0	 0.0	 3	   0.000000	  90.030000	   0.000000;
	2	 0.0	 0.0	 3	   0.000000	   0.000000	   0.000000;
	2	 0.0	 0.0	 3	   0.000000	   0.000000	   0.000000;
	2	 0.0	 0.0	 3	   0.000000	  92.780000	   0.000000;
	2	 0.0	 0.0	 3	   0.000000	  92.780000	   0.000000;
	2	 0.0	 0.0	 3	   0.000000	  94.090000	   0.000000;
	2	 0.0	 0.0	 3	   0.000000	  94.090000	   0.000000;
	2	 0.0	 0.0	 3	   0.000000	  97.120000	   0.000000;
	2	 0.0	 0.0	 3	   0.000000	  97.120000	   0.000000;
	2	 0.0	 0.0	 3	   0.000000	  99.520000	   0.000000;
	2	 0.0	 0.0	 3	   0.000000	  91.160000	   0.000000;
	2	 0.0	 0.0	 3	   0.000000	  91.160000	   0.000000;
	2	 0.0	 0.0	 3	   0.000000	  91.160000	   0.000000;
	2	 0.0	 0.0	 3	   0.000000	  91.160000	   0.000000;
	2	 0.0	 0.0	 3	   0.000000	  91.160000	   0.000000;
	2	 0.0	 0.0	 3	   0.000000	   0.010000	   0.000000;
	2	 0.0	 0.0	 3	   0.000000	   0.010000	   0.000000;
	2	 0.0	 0.0	 3	   0.000000	   0.010000	   0.000000;
	2	 0.0	 0.0	 3	   0.000000	   0.010000	   0.000000;
	2	 0.0	 0.0	 3	   0.000000	  92.430000	   0.000000;
	2	 0.0	 0.0	 3	   0.000000	  92.430000	   0.000000;
	2	 0.0	 0.0	 3	   0.000000	  92.430000	   0.000000;
	2	 0.0	 0.0	 3	   0.000000	  96.420000	   0.000000;
	2	 0.0	 0.0	 3	   0.000000	  96.420000	   0.000000;
	2	 0.0	 0.0	 3	   0.000000	  96.420000	   0.000000;
	2	 0.0	 0.0	 3	   0.000000	 116.010000	   0.000000;
	2	 0.0	 0.0	 3	   0.000000	 116.010000	   0.000000;
	2	 0.0	 0.0	 3	   0.000000	 116.010000	   0.000000;
	2	 0.0	 0.0	 3	   0.000000	 116.010000	   0.000000;
	2	 0.0	 0.0	 3	   0.000000	 116.010000	   0.000000;
	2	 0.0	 0.0	 3	   0.000000	 116.010000	   0.000000;
	2	 0.0	 0.0	 3	   0.000000	 116.010000	   0.000000;
	2	 0.0	 0.0	 3	   0.000000	  98.840000	   0.000000;
	2	 0.0	 0.0	 3	   0.000000	  98.840000	   0.000000;
	2	 0.0	 0.0	 3	   0.000000	  98.840000	   0.000000;
	2	 0.0	 0.0	 3	   0.000000	  98.840000	   0.000000;
	2	 0.0	 0.0	 3	   0.000000	  98.840000	   0.000000;
	2	 0.0	 0.0	 3	   0.000000	  98.840000	   0.000000;
	2	 0.0	 0.0	 3	   0.000000	  98.840000	   0.000000;
	2	 0.0	 0.0	 3	   0.000000	  98.840000	   0.000000;
	2	 0.0	 0.0	 3	   0.000000	  98.840000	   0.000000;
	2	 0.0	 0.0	 3	   0.000000	  89.220000	   0.000000;
	2	 0.0	 0.0	 3	   0.000000	  89.220000	   0.000000;
	2	 0.0	 0.0	 3	   0.000000	  89.220000	   0.000000;
	2	 0.0	 0.0	 3	   0.000000	  89.220000	   0.000000;
	2	 0.0	 0.0	 3	   0.000000	   0.000000	   0.000000;
	2	 0.0	 0.0	 3	   0.000000	   0.010000	   0.000000;
	2	 0.0	 0.0	 3	   0.000000	   0.010000	   0.000000;
	2	 0.0	 0.0	 3	   0.000000	   0.010000	   0.000000;
	2	 0.0	 0.0	 3	   0.000000	   0.010000	   0.000000;
	2	 0.0	 0.0	 3	   0.000000	   0.000000	   0.000000;
	2	 0.0	 0.0	 3	   0.000000	   0.000000	   0.000000;
	2	 0.0	 0.0	 3	   0.000000	   0.000000	   0.000000;
	2	 0.0	 0.0	 3	   0.000000	   0.000000	   0.000000;
	2	 0.0	 0.0	 3	   0.000000	   0.000000	   0.000000;
	2	 0.0	 0.0	 3	   0.000000	   0.000000	   0.000000;
	2	 0.0	 0.0	 3	   0.000000	   0.000000	   0.000000;
	2	 0.0	 0.0	 3	   0.000000	  76.100000	   0.000000;
	2	 0.0	 0.0	 3	   0.000000	   0.000000	   0.000000;
	2	 0.0	 0.0	 3	   0.000000	   0.000000	   0.000000;
	2	 0.0	 0.0	 3	   0.000000	   0.000000	   0.000000;
	2	 0.0	 0.0	 3	   0.000000	   0.000000	   0.000000;
	2	 0.0	 0.0	 3	   0.000000	   0.000000	   0.000000;
	2	 0.0	 0.0	 3	   0.000000	   0.000000	   0.000000;
	2	 0.0	 0.0	 3	   0.000000	   0.000000	   0.000000;
	2	 0.0	 0.0	 3	   0.000000	   0.000000	   0.000000;
	2	 0.0	 0.0	 3	   0.000000	   0.000000	   0.000000;
	2	 0.0	 0.0	 3	   0.000000	   0.000000	   0.000000;
	2	 0.0	 0.0	 3	   0.000000	   0.000000	   0.000000;
	2	 0.0	 0.0	 3	   0.000000	   0.000000	   0.000000;
	2	 0.0	 0.0	 3	   0.000000	   0.000000	   0.000000;
	2	 0.0	 0.0	 3	   0.000000	   0.000000	   0.000000;
	2	 0.0	 0.0	 3	   0.000000	   0.000000	   0.000000;
	2	 0.0	 0.0	 3	   0.000000	   0.000000	   0.000000;
	2	 0.0	 0.0	 3	   0.000000	   0.000000	   0.000000;
	2	 0.0	 0.0	 3	   0.000000	   0.000000	   0.000000;
	2	 0.0	 0.0	 3	   0.000000	   0.000000	   0.000000;
	2	 0.0	 0.0	 3	   0.000000	 112.780000	   0.000000;
	2	 0.0	 0.0	 3	   0.000000	 112.780000	   0.000000;
	2	 0.0	 0.0	 3	   0.000000	 112.780000	   0.000000;
	2	 0.0	 0.0	 3	   0.000000	   0.000000	   0.000000;
	2	 0.0	 0.0	 3	   0.000000	   0.000000	   0.000000;
	2	 0.0	 0.0	 3	   0.000000	   0.000000	   0.000000;
	2	 0.0	 0.0	 3	   0.000000	   0.000000	   0.000000;
	2	 0.0	 0.0	 3	   0.000000	   0.000000	   0.000000;
	2	 0.0	 0.0	 3	   0.000000	   0.000000	   0.000000;
	2	 0.0	 0.0	 3	   0.000000	   0.000000	   0.000000;
	2	 0.0	 0.0	 3	   0.000000	   0.000000	   0.000000;
	2	 0.0	 0.0	 3	   0.000000	   0.000000	   0.000000;
	2	 0.0	 0.0	 3	   0.000000	   0.000000	   0.000000;
	2	 0.0	 0.0	 3	   0.000000	   0.000000	   0.000000;
	2	 0.0	 0.0	 3	   0.000000	   0.000000	   0.000000;
	2	 0.0	 0.0	 3	   0.000000	   0.000000	   0.000000;
	2	 0.0	 0.0	 3	   0.000000	   0.000000	   0.000000;
	2	 0.0	 0.0	 3	   0.000000	   0.000000	   0.000000;
	2	 0.0	 0.0	 3	   0.000000	   0.000000	   0.000000;
	2	 0.0	 0.0	 3	   0.000000	   0.000000	   0.000000;
	2	 0.0	 0.0	 3	   0.000000	   0.000000	   0.000000;
	2	 0.0	 0.0	 3	   0.000000	   0.000000	   0.000000;
	2	 0.0	 0.0	 3	   0.000000	   0.000000	   0.000000;
	2	 0.0	 0.0	 3	   0.000000	   0.000000	   0.000000;
	2	 0.0	 0.0	 3	   0.000000	   0.000000	   0.000000;
	2	 0.0	 0.0	 3	   0.000000	   0.000000	   0.000000;
	2	 0.0	 0.0	 3	   0.000000	   0.000000	   0.000000;
	2	 0.0	 0.0	 3	   0.000000	   0.000000	   0.000000;
	2	 0.0	 0.0	 3	   0.000000	   0.000000	   0.000000;
	2	 0.0	 0.0	 3	   0.000000	 102.050000	   0.000000;
	2	 0.0	 0.0	 3	   0.000000	 102.050000	   0.000000;
	2	 0.0	 0.0	 3	   0.000000	   0.000000	   0.000000;
	2	 0.0	 0.0	 3	   0.000000	   0.000000	   0.000000;
	2	 0.0	 0.0	 3	   0.000000	   0.000000	   0.000000;
	2	 0.0	 0.0	 3	   0.000000	   0.000000	   0.000000;
	2	 0.0	 0.0	 3	   0.000000	 105.350000	   0.000000;
	2	 0.0	 0.0	 3	   0.000000	   0.000000	   0.000000;
	2	 0.0	 0.0	 3	   0.000000	   0.000000	   0.000000;
	2	 0.0	 0.0	 3	   0.000000	   0.010000	   0.000000;
	2	 0.0	 0.0	 3	   0.000000	   0.010000	   0.000000;
	2	 0.0	 0.0	 3	   0.000000	   0.010000	   0.000000;
	2	 0.0	 0.0	 3	   0.000000	   0.010000	   0.000000;
	2	 0.0	 0.0	 3	   0.000000	 111.630000	   0.000000;
	2	 0.0	 0.0	 3	   0.000000	 111.630000	   0.000000;
	2	 0.0	 0.0	 3	   0.000000	   0.000000	   0.000000;
	2	 0.0	 0.0	 3	   0.000000	   0.000000	   0.000000;
	2	 0.0	 0.0	 3	   0.000000	   0.000000	   0.000000;
	2	 0.0	 0.0	 3	   0.000000	   0.000000	   0.000000;
	2	 0.0	 0.0	 3	   0.000000	   0.000000	   0.000000;
	2	 0.0	 0.0	 3	   0.000000	   0.000000	   0.000000;
	2	 0.0	 0.0	 3	   0.000000	   0.000000	   0.000000;
	2	 0.0	 0.0	 3	   0.000000	   0.000000	   0.000000;
	2	 0.0	 0.0	 3	   0.000000	   0.000000	   0.000000;
	2	 0.0	 0.0	 3	   0.000000	   0.000000	   0.000000;
	2	 0.0	 0.0	 3	   0.000000	   0.000000	   0.000000;
	2	 0.0	 0.0	 3	   0.000000	  90.030000	   0.000000;
	2	 0.0	 0.0	 3	   0.000000	  90.030000	   0.000000;
	2	 0.0	 0.0	 3	   0.000000	   0.000000	   0.000000;
	2	 0.0	 0.0	 3	   0.000000	   0.000000	   0.000000;
	2	 0.0	 0.0	 3	   0.000000	   0.000000	   0.000000;
	2	 0.0	 0.0	 3	   0.000000	   0.000000	   0.000000;
	2	 0.0	 0.0	 3	   0.000000	   0.000000	   0.000000;
	2	 0.0	 0.0	 3	   0.000000	   0.000000	   0.000000;
	2	 0.0	 0.0	 3	   0.000000	   0.000000	   0.000000;
	2	 0.0	 0.0	 3	   0.000000	   0.000000	   0.000000;
	2	 0.0	 0.0	 3	   0.000000	   0.000000	   0.000000;
	2	 0.0	 0.0	 3	   0.000000	   0.000000	   0.000000;
	2	 0.0	 0.0	 3	   0.000000	   0.000000	   0.000000;
	2	 0.0	 0.0	 3	   0.000000	   0.000000	   0.000000;
	2	 0.0	 0.0	 3	   0.000000	   0.000000	   0.000000;
	2	 0.0	 0.0	 3	   0.000000	   0.000000	   0.000000;
	2	 0.0	 0.0	 3	   0.000000	   0.000000	   0.000000;
	2	 0.0	 0.0	 3	   0.000000	   0.000000	   0.000000;
	2	 0.0	 0.0	 3	   0.000000	   0.000000	   0.000000;
	2	 0.0	 0.0	 3	   0.000000	   0.000000	   0.000000;
	2	 0.0	 0.0	 3	   0.000000	   0.000000	   0.000000;
	2	 0.0	 0.0	 3	   0.000000	   0.000000	   0.000000;
	2	 0.0	 0.0	 3	   0.000000	   0.000000	   0.000000;
	2	 0.0	 0.0	 3	   0.000000	   0.000000	   0.000000;
	2	 0.0	 0.0	 3	   0.000000	   0.000000	   0.000000;
	2	 0.0	 0.0	 3	   0.000000	   0.000000	   0.000000;
	2	 0.0	 0.0	 3	   0.000000	   0.000000	   0.000000;
	2	 0.0	 0.0	 3	   0.000000	   0.000000	   0.000000;
	2	 0.0	 0.0	 3	   0.000000	   0.000000	   0.000000;
	2	 0.0	 0.0	 3	   0.000000	   0.000000	   0.000000;
	2	 0.0	 0.0	 3	   0.000000	   0.000000	   0.000000;
	2	 0.0	 0.0	 3	   0.000000	   0.000000	   0.000000;
	2	 0.0	 0.0	 3	   0.000000	   0.000000	   0.000000;
...
];

%% branch data
%	fbus	tbus	r	x	b	rateA	rateB	rateC	ratio	angle	status	angmin	angmax
mpc.branch = [
	7	 8	 0.00064	 0.0305	 0.0	 400.0	 400.0	 400.0	 1.0435	 -0.6	 1	 -30.0	 30.0;
	26	 28	 0.00036	 0.02519	 0.0	 500.0	 500.0	 500.0	 1.067	 0.0	 1	 -30.0	 30.0;
	27	 29	 0.00036	 0.02519	 0.0	 500.0	 500.0	 500.0	 1.0671	 0.0	 1	 -30.0	 30.0;
	39	 41	 0.00034	 0.02097	 0.0	 500.0	 500.0	 500.0	 1.1102	 0.0	 1	 -30.0	 30.0;
	42	 45	 0.00034	 0.02097	 0.0	 500.0	 500.0	 500.0	 1.0917	 0.0	 1	 -30.0	 30.0;
	54	 56	 0.00081	 0.03	 0.0	 400.0	 400.0	 400.0	 1.0466	 0.0	 1	 -30.0	 30.0;
	89	 91	 0.00075	 0.02444	 -0.00832	 330.0	 330.0	 330.0	 1.0553	 0.0	 1	 -30.0	 30.0;
	90	 92	 0.00075	 0.02469	 -0.008	 330.0	 330.0	 330.0	 1.0552	 0.0	 1	 -30.0	 30.0;
	124	 127	 0.0005	 0.02875	 -0.016	 400.0	 400.0	 400.0	 1.087	 0.0	 1	 -30.0	 30.0;
	148	 149	 0.00064	 0.0305	 0.0	 400.0	 400.0	 400.0	 1.0636	 0.0	 1	 -30.0	 30.0;
	154	 156	 0.000232	 0.023	 0.0	 500.0	 500.0	 500.0	 1.0953	 0.0	 1	 -30.0	 30.0;
	155	 157	 0.000232	 0.023	 0.0	 500.0	 500.0	 500.0	 1.0953	 0.0	 1	 -30.0	 30.0;
	168	 170	 0.00035	 0.02375	 0.0	 500.0	 500.0	 500.0	 1.0767	 0.0	 1	 -30.0	 30.0;
	182	 183	 0.00059	 0.03093	 0.0	 400.0	 400.0	 400.0	 1.0504	 0.0	 1	 -30.0	 30.0;
	189	 191	 0.0004	 0.03	 0.0	 500.0	 500.0	 500.0	 1.0695	 3.6	 1	 -30.0	 30.0;
	2726	 156	 0.00031	 0.00338	 0.0992	 1386.0	 1386.0	 1386.0	 0.0	 0.0	 1	 -30.0	 30.0;
	2726	 157	 0.00031	 0.00338	 0.0992	 1386.0	 1386.0	 1386.0	 0.0	 0.0	 1	 -30.0	 30.0;
	2727	 67	 0.014341	 0.083531	 0.126034	 385.0	 385.0	 385.0	 0.0	 0.0	 1	 -30.0	 30.0;
	2725	 75	 0.01219	 0.070659	 0.117418	 412.0	 412.0	 412.0	 0.0	 0.0	 1	 -30.0	 30.0;
	2725	 104	 0.011781	 0.07087	 0.116838	 412.0	 412.0	 412.0	 0.0	 0.0	 1	 -30.0	 30.0;
	126	 2724	 0.001525	 0.016837	 0.50576	 1386.0	 1386.0	 1386.0	 0.0	 0.0	 1	 -30.0	 30.0;
	2728	 147	 0.001651	 0.015909	 0.046948	 316.0	 316.0	 316.0	 0.0	 0.0	 1	 -30.0	 30.0;
	2728	 148	 0.001651	 0.015909	 0.046948	 316.0	 316.0	 316.0	 0.0	 0.0	 1	 -30.0	 30.0;
	2729	 47	 0.00188	 0.02287	 0.6432	 831.0	 831.0	 831.0	 0.0	 0.0	 1	 -30.0	 30.0;
	2729	 48	 0.00188	 0.02287	 0.6432	 831.0	 831.0	 831.0	 0.0	 0.0	 1	 -30.0	 30.0;
	81	 2723	 0.002769	 0.031162	 0.89824	 1386.0	 1386.0	 1386.0	 0.0	 0.0	 1	 -30.0	 30.0;
	42	 23	 0.01345	 0.081141	 0.141134	 339.0	 339.0	 339.0	 0.0	 0.0	 1	 -30.0	 30.0;
	26	 89	 0.009091	 0.062401	 0.111417	 453.0	 453.0	 453.0	 0.0	 0.0	 1	 -30.0	 30.0;
	27	 90	 0.00868	 0.06405	 0.096994	 427.0	 427.0	 427.0	 0.0	 0.0	 1	 -30.0	 30.0;
	145	 30	 0.016961	 0.123659	 0.196988	 316.0	 316.0	 316.0	 0.0	 0.0	 1	 -30.0	 30.0;
	134	 33	 0.00512	 0.02618	 0.029621	 301.0	 301.0	 301.0	 0.0	 0.0	 1	 -30.0	 30.0;
	133	 20	 0.01068	 0.061961	 0.094961	 385.0	 385.0	 385.0	 0.0	 0.0	 1	 -30.0	 30.0;
	163	 21	 0.014651	 0.105891	 0.170852	 316.0	 316.0	 316.0	 0.0	 0.0	 1	 -30.0	 30.0;
	40	 108	 0.01488	 0.08161	 0.114805	 314.0	 314.0	 314.0	 0.0	 0.0	 1	 -30.0	 30.0;
	39	 90	 0.011159	 0.07231	 0.103673	 324.0	 324.0	 324.0	 0.0	 0.0	 1	 -30.0	 30.0;
	177	 82	 0.005517	 0.059484	 0.170775	 316.0	 316.0	 316.0	 0.0	 0.0	 1	 -30.0	 30.0;
	202	 164	 0.01176	 0.068289	 0.102802	 324.0	 324.0	 324.0	 0.0	 0.0	 1	 -30.0	 30.0;
	193	 164	 0.016818	 0.089091	 0.129935	 358.0	 358.0	 358.0	 0.0	 0.0	 1	 -30.0	 30.0;
	192	 163	 0.013843	 0.087025	 0.134842	 383.0	 383.0	 383.0	 0.0	 0.0	 1	 -30.0	 30.0;
	206	 166	 0.01676	 0.097169	 0.148685	 269.0	 269.0	 269.0	 0.0	 0.0	 1	 -30.0	 30.0;
	42	 10	 0.01269	 0.074979	 0.130196	 351.0	 351.0	 351.0	 0.0	 0.0	 1	 -30.0	 30.0;
	197	 18	 0.014091	 0.10413	 0.15972	 316.0	 316.0	 316.0	 0.0	 0.0	 1	 -30.0	 30.0;
	99	 54	 0.003719	 0.0438	 0.100962	 457.0	 457.0	 457.0	 0.0	 0.0	 1	 -30.0	 30.0;
	161	 81	 0.00194	 0.02056	 0.51584	 1178.0	 1178.0	 1178.0	 0.0	 0.0	 1	 -30.0	 30.0;
	44	 9	 0.0015	 0.01506	 0.4032	 1386.0	 1386.0	 1386.0	 0.0	 0.0	 1	 -30.0	 30.0;
	184	 149	 0.00294	 0.03463	 0.9216	 693.0	 693.0	 693.0	 0.0	 0.0	 1	 -30.0	 30.0;
	120	 56	 0.00169	 0.01994	 0.50624	 831.0	 831.0	 831.0	 0.0	 0.0	 1	 -30.0	 30.0;
	29	 92	 0.00137	 0.01625	 0.41184	 1386.0	 1386.0	 1386.0	 0.0	 0.0	 1	 -30.0	 30.0;
	28	 122	 0.00231	 0.02769	 0.70144	 1386.0	 1386.0	 1386.0	 0.0	 0.0	 1	 -30.0	 30.0;
	25	 191	 0.00207	 0.02474	 0.664	 1386.0	 1386.0	 1386.0	 0.0	 0.0	 1	 -30.0	 30.0;
	119	 63	 0.0015	 0.01788	 0.4512	 831.0	 831.0	 831.0	 0.0	 0.0	 1	 -30.0	 30.0;
	121	 63	 0.00469	 0.05544	 1.4048	 831.0	 831.0	 831.0	 0.0	 0.0	 1	 -30.0	 30.0;
	81	 31	 0.00331	 0.03425	 0.85888	 977.0	 977.0	 977.0	 0.0	 0.0	 1	 -30.0	 30.0;
	91	 28	 0.00219	 0.02369	 0.59584	 1178.0	 1178.0	 1178.0	 0.0	 0.0	 1	 -30.0	 30.0;
	12	 4	 0.01674	 0.09711	 0.144232	 427.0	 427.0	 427.0	 0.0	 0.0	 1	 -30.0	 30.0;
	30	 11	 0.0057	 0.0407	 0.06021	 316.0	 316.0	 316.0	 0.0	 0.0	 1	 -30.0	 30.0;
	24	 4	 0.004419	 0.032229	 0.049852	 383.0	 383.0	 383.0	 0.0	 0.0	 1	 -30.0	 30.0;
	17	 7	 0.014591	 0.11219	 0.165528	 383.0	 383.0	 383.0	 0.0	 0.0	 1	 -30.0	 30.0;
	21	 10	 0.01211	 0.087419	 0.140166	 316.0	 316.0	 316.0	 0.0	 0.0	 1	 -30.0	 30.0;
	26	 5	 0.009773	 0.050516	 0.088959	 377.0	 377.0	 377.0	 0.0	 0.0	 1	 -30.0	 30.0;
	17	 3	 0.01068	 0.07895	 0.245194	 274.0	 274.0	 274.0	 0.0	 0.0	 1	 -30.0	 30.0;
	26	 19	 0.0057	 0.039521	 0.075533	 440.0	 440.0	 440.0	 0.0	 0.0	 1	 -30.0	 30.0;
	27	 20	 0.0057	 0.039521	 0.075533	 440.0	 440.0	 440.0	 0.0	 0.0	 1	 -30.0	 30.0;
	13	 6	 0.00525	 0.03988	 0.061952	 316.0	 316.0	 316.0	 0.0	 0.0	 1	 -30.0	 30.0;
	13	 12	 2.1e-05	 0.000207	 0.0	 316.0	 316.0	 316.0	 0.0	 0.0	 1	 -30.0	 30.0;
	32	 13	 0.00093	 0.00651	 0.011132	 316.0	 316.0	 316.0	 0.0	 0.0	 1	 -30.0	 30.0;
	23	 11	 0.00205	 0.01326	 0.022429	 385.0	 385.0	 385.0	 0.0	 0.0	 1	 -30.0	 30.0;
	33	 5	 0.007831	 0.043	 0.04962	 301.0	 301.0	 301.0	 0.0	 0.0	 1	 -30.0	 30.0;
	19	 4	 0.00293	 0.01599	 0.024781	 324.0	 324.0	 324.0	 0.0	 0.0	 1	 -30.0	 30.0;
	26	 1	 0.00155	 0.01169	 0.018198	 633.0	 633.0	 633.0	 0.0	 0.0	 1	 -30.0	 30.0;
	27	 2	 0.00155	 0.01169	 0.018198	 633.0	 633.0	 633.0	 0.0	 0.0	 1	 -30.0	 30.0;
	27	 24	 0.003841	 0.028531	 0.045883	 392.0	 392.0	 392.0	 0.0	 0.0	 1	 -30.0	 30.0;
	25	 9	 0.00298	 0.03418	 0.93504	 831.0	 831.0	 831.0	 0.0	 0.0	 1	 -30.0	 30.0;
	28	 25	 0.00358	 0.04262	 1.0944	 1386.0	 1386.0	 1386.0	 0.0	 0.0	 1	 -30.0	 30.0;
	14	 29	 0.00336	 0.03977	 1.02163	 1316.0	 1316.0	 1316.0	 0.0	 0.0	 1	 -30.0	 30.0;
	8	 15	 0.00299	 0.03675	 0.9184	 1150.0	 1150.0	 1150.0	 0.0	 0.0	 1	 -30.0	 30.0;
	8	 14	 0.00112	 0.01329	 0.341248	 1150.0	 1150.0	 1150.0	 0.0	 0.0	 1	 -30.0	 30.0;
	31	 29	 0.00075	 0.009	 0.22848	 1150.0	 1150.0	 1150.0	 0.0	 0.0	 1	 -30.0	 30.0;
	62	 58	 0.010479	 0.060969	 0.092047	 269.0	 269.0	 269.0	 0.0	 0.0	 1	 -30.0	 30.0;
...